/*---------------------------------------------------------------------------*\
| =========                 |                                                 |
| \\      /  F ield         | OpenFOAM: The Open Source CFD Toolbox           |
|  \\    /   O peration     | Version:  2212                                  |
|   \\  /    A nd           | Website:  www.openfoam.com                      |
|    \\/     M anipulation  |                                                 |
\*---------------------------------------------------------------------------*/
Build  : _fd8c5e00-20221221 OPENFOAM=2212 version=2212
Arch   : "LSB;label=32;scalar=64"
Exec   : interFoam -parallel
Date   : Jan 01 2023
Time   : 14:31:46
Host   : Ubuntu-OpenFOAM
PID    : 174724
I/O    : uncollated
Case   : /home/daiji/OpenFOAM/nozzle_extended/nozzle_extended_00
nProcs : 8
Hosts  :
(
    (Ubuntu-OpenFOAM 8)
)
Pstream initialized with:
    floatTransfer      : 0
    nProcsSimpleSum    : 0
    commsType          : nonBlocking
    polling iterations : 0
trapFpe: Floating point exception trapping enabled (FOAM_SIGFPE).
fileModificationChecking : Monitoring run-time modified files using timeStampMaster (fileModificationSkew 5, maxFileModificationPolls 20)
allowSystemOperations : Allowing user-supplied system call operations

// * * * * * * * * * * * * * * * * * * * * * * * * * * * * * * * * * * * * * //
Create time

Create mesh for time = 0


PIMPLE: Operating solver in PISO mode

Reading field p_rgh

Reading field U

Reading/calculating face flux field phi

Reading transportProperties

Selecting incompressible transport model Newtonian
Selecting incompressible transport model Newtonian
Selecting turbulence model type laminar
Selecting laminar stress model Stokes

Reading g

Reading hRef
Calculating field g.h

No MRF models present

No finite volume options present
GAMG:  Solving for pcorr, Initial residual = 1, Final residual = 8.65039e-06, No Iterations 70
time step continuity errors : sum local = 9.96468e-09, global = -6.61268e-10, cumulative = -6.61268e-10
Courant Number mean: 0.609121 max: 8514.76

Starting time loop

Courant Number mean: 7.61401e-05 max: 1.06435
Interface Courant Number mean: 0 max: 0
deltaT = 1.25e-07
Time = 1.25e-07

PIMPLE: iteration 1
smoothSolver:  Solving for alpha.water, Initial residual = 1.43186e-07, Final residual = 3.14514e-10, No Iterations 1
Phase-1 volume fraction = 0.195983  Min(alpha.water) = 0  Max(alpha.water) = 1
MULES: Correcting alpha.water
MULES: Correcting alpha.water
Phase-1 volume fraction = 0.195983  Min(alpha.water) = -6.4068e-07  Max(alpha.water) = 1
GAMG:  Solving for p_rgh, Initial residual = 1, Final residual = 9.69222e-08, No Iterations 106
time step continuity errors : sum local = 1.59613e-14, global = -1.3776e-15, cumulative = -6.61269e-10
ExecutionTime = 41.45 s  ClockTime = 42 s

Courant Number mean: 7.57974e-05 max: 0.702321
Interface Courant Number mean: 1.48156e-07 max: 0.238728
deltaT = 1.25e-07
Time = 2.5e-07

PIMPLE: iteration 1
smoothSolver:  Solving for alpha.water, Initial residual = 1.37831e-07, Final residual = 4.52634e-11, No Iterations 1
Phase-1 volume fraction = 0.195983  Min(alpha.water) = -2.27681e-16  Max(alpha.water) = 1
MULES: Correcting alpha.water
MULES: Correcting alpha.water
Phase-1 volume fraction = 0.195983  Min(alpha.water) = -2.08308e-16  Max(alpha.water) = 1
GAMG:  Solving for p_rgh, Initial residual = 1.21052e-07, Final residual = 4.54418e-08, No Iterations 2
time step continuity errors : sum local = 1.05618e-06, global = 6.45771e-08, cumulative = 6.39159e-08
ExecutionTime = 48.61 s  ClockTime = 49 s

Courant Number mean: 0.000107301 max: 1.066
Interface Courant Number mean: 2.36817e-07 max: 0.495637
deltaT = 1.25e-07
Time = 3.75e-07

PIMPLE: iteration 1
smoothSolver:  Solving for alpha.water, Initial residual = 1.04835e-06, Final residual = 3.98213e-10, No Iterations 1
Phase-1 volume fraction = 0.195983  Min(alpha.water) = -7.52074e-34  Max(alpha.water) = 1.01676
MULES: Correcting alpha.water
MULES: Correcting alpha.water
Phase-1 volume fraction = 0.195983  Min(alpha.water) = -1.1533e-15  Max(alpha.water) = 1.01676
GAMG:  Solving for p_rgh, Initial residual = 2.76326e-07, Final residual = 9.80984e-08, No Iterations 2
time step continuity errors : sum local = 1.22085e-06, global = 7.63374e-08, cumulative = 1.40253e-07
ExecutionTime = 55.84 s  ClockTime = 56 s

Courant Number mean: 0.000112303 max: 1.21559
Interface Courant Number mean: 2.77437e-07 max: 1.1766
deltaT = 1.25e-07
Time = 5e-07

PIMPLE: iteration 1
smoothSolver:  Solving for alpha.water, Initial residual = 1.27271e-06, Final residual = 5.47407e-10, No Iterations 1
Phase-1 volume fraction = 0.195983  Min(alpha.water) = -1.51603e-31  Max(alpha.water) = 1.02623
MULES: Correcting alpha.water
MULES: Correcting alpha.water
Phase-1 volume fraction = 0.195983  Min(alpha.water) = -1.81628e-14  Max(alpha.water) = 1.02623
GAMG:  Solving for p_rgh, Initial residual = 5.53876e-07, Final residual = 6.70215e-08, No Iterations 8
time step continuity errors : sum local = 2.69189e-07, global = 1.88465e-08, cumulative = 1.591e-07
ExecutionTime = 64.22 s  ClockTime = 65 s

Courant Number mean: 8.25211e-05 max: 1.05432
Interface Courant Number mean: 2.10685e-07 max: 0.852842
deltaT = 1.25e-07
Time = 6.25e-07

PIMPLE: iteration 1
smoothSolver:  Solving for alpha.water, Initial residual = 3.93697e-07, Final residual = 1.48065e-10, No Iterations 1
Phase-1 volume fraction = 0.195983  Min(alpha.water) = -7.1563e-28  Max(alpha.water) = 1.02599
MULES: Correcting alpha.water
MULES: Correcting alpha.water
Phase-1 volume fraction = 0.195983  Min(alpha.water) = -1.18653e-14  Max(alpha.water) = 1.02599
GAMG:  Solving for p_rgh, Initial residual = 1.36945e-07, Final residual = 9.10655e-08, No Iterations 1
time step continuity errors : sum local = 1.21418e-06, global = -6.26566e-09, cumulative = 1.52834e-07
ExecutionTime = 71.25 s  ClockTime = 72 s

Courant Number mean: 6.88625e-05 max: 1.66158
Interface Courant Number mean: 1.46134e-07 max: 1.25217
deltaT = 7.5e-08
Time = 7e-07

PIMPLE: iteration 1
smoothSolver:  Solving for alpha.water, Initial residual = 6.71323e-07, Final residual = 5.7958e-11, No Iterations 1
Phase-1 volume fraction = 0.195983  Min(alpha.water) = -6.7846e-28  Max(alpha.water) = 1.03079
MULES: Correcting alpha.water
MULES: Correcting alpha.water
Phase-1 volume fraction = 0.195983  Min(alpha.water) = -3.49591e-18  Max(alpha.water) = 1.02804
GAMG:  Solving for p_rgh, Initial residual = 3.67654e-07, Final residual = 9.82849e-08, No Iterations 3
time step continuity errors : sum local = 3.29516e-07, global = -1.82735e-08, cumulative = 1.34561e-07
ExecutionTime = 78.78 s  ClockTime = 79 s

Courant Number mean: 3.8016e-05 max: 0.938458
Interface Courant Number mean: 7.54545e-08 max: 0.726437
deltaT = 7.5e-08
Time = 7.75e-07

PIMPLE: iteration 1
smoothSolver:  Solving for alpha.water, Initial residual = 3.24922e-07, Final residual = 1.6823e-11, No Iterations 1
Phase-1 volume fraction = 0.195983  Min(alpha.water) = -6.5732e-28  Max(alpha.water) = 1.0272
MULES: Correcting alpha.water
MULES: Correcting alpha.water
Phase-1 volume fraction = 0.195983  Min(alpha.water) = -1.05479e-15  Max(alpha.water) = 1.02718
GAMG:  Solving for p_rgh, Initial residual = 2.49034e-06, Final residual = 9.40075e-08, No Iterations 13
time step continuity errors : sum local = 4.65239e-08, global = -3.77222e-09, cumulative = 1.30788e-07
ExecutionTime = 88.06 s  ClockTime = 89 s

Courant Number mean: 4.39582e-05 max: 0.871119
Interface Courant Number mean: 1.03601e-07 max: 0.667091
deltaT = 7.5e-08
Time = 8.5e-07

PIMPLE: iteration 1
smoothSolver:  Solving for alpha.water, Initial residual = 1.19905e-07, Final residual = 1.55843e-11, No Iterations 1
Phase-1 volume fraction = 0.195983  Min(alpha.water) = -5.79605e-28  Max(alpha.water) = 1.02632
MULES: Correcting alpha.water
MULES: Correcting alpha.water
Phase-1 volume fraction = 0.195983  Min(alpha.water) = -8.81828e-16  Max(alpha.water) = 1.02629
GAMG:  Solving for p_rgh, Initial residual = 1.63398e-07, Final residual = 7.28932e-08, No Iterations 1
time step continuity errors : sum local = 2.31233e-07, global = 1.13118e-08, cumulative = 1.421e-07
ExecutionTime = 95.19 s  ClockTime = 96 s

Courant Number mean: 4.97908e-05 max: 0.845986
Interface Courant Number mean: 1.29162e-07 max: 0.627309
deltaT = 7.5e-08
Time = 9.25e-07

PIMPLE: iteration 1
smoothSolver:  Solving for alpha.water, Initial residual = 3.00776e-07, Final residual = 3.82933e-11, No Iterations 1
Phase-1 volume fraction = 0.195983  Min(alpha.water) = -3.87981e-28  Max(alpha.water) = 1.02431
MULES: Correcting alpha.water
MULES: Correcting alpha.water
Phase-1 volume fraction = 0.195983  Min(alpha.water) = -4.3437e-15  Max(alpha.water) = 1.02429
GAMG:  Solving for p_rgh, Initial residual = 1.80484e-07, Final residual = 9.77884e-08, No Iterations 3
time step continuity errors : sum local = 2.79682e-07, global = 2.09931e-08, cumulative = 1.63093e-07
ExecutionTime = 103.5 s  ClockTime = 105 s

Courant Number mean: 5.34321e-05 max: 0.843604
Interface Courant Number mean: 1.43505e-07 max: 0.600697
deltaT = 7.5e-08
Time = 1e-06

PIMPLE: iteration 1
smoothSolver:  Solving for alpha.water, Initial residual = 3.60963e-07, Final residual = 5.32123e-11, No Iterations 1
Phase-1 volume fraction = 0.195984  Min(alpha.water) = -5.50677e-29  Max(alpha.water) = 1.0213
MULES: Correcting alpha.water
MULES: Correcting alpha.water
Phase-1 volume fraction = 0.195984  Min(alpha.water) = -9.5466e-15  Max(alpha.water) = 1.0213
GAMG:  Solving for p_rgh, Initial residual = 5.0821e-07, Final residual = 8.40813e-08, No Iterations 7
time step continuity errors : sum local = 1.25298e-07, global = 1.00495e-08, cumulative = 1.73143e-07
ExecutionTime = 111.99 s  ClockTime = 113 s

Courant Number mean: 4.92636e-05 max: 0.821548
Interface Courant Number mean: 1.26768e-07 max: 0.588596
deltaT = 8.33333e-08
Time = 1.08333e-06

PIMPLE: iteration 1
smoothSolver:  Solving for alpha.water, Initial residual = 2.26454e-07, Final residual = 3.88458e-11, No Iterations 1
Phase-1 volume fraction = 0.195984  Min(alpha.water) = -5.46807e-29  Max(alpha.water) = 1.02191
MULES: Correcting alpha.water
MULES: Correcting alpha.water
Phase-1 volume fraction = 0.195984  Min(alpha.water) = -1.15854e-14  Max(alpha.water) = 1.02191
GAMG:  Solving for p_rgh, Initial residual = 3.03514e-07, Final residual = 5.67072e-08, No Iterations 1
time step continuity errors : sum local = 1.31817e-07, global = -3.07869e-09, cumulative = 1.70064e-07
ExecutionTime = 119.16 s  ClockTime = 121 s

Courant Number mean: 4.9914e-05 max: 0.830855
Interface Courant Number mean: 1.18405e-07 max: 0.608747
deltaT = 1.04167e-07
Time = 1.1875e-06

PIMPLE: iteration 1
smoothSolver:  Solving for alpha.water, Initial residual = 2.60552e-07, Final residual = 4.70456e-11, No Iterations 1
Phase-1 volume fraction = 0.195984  Min(alpha.water) = -5.42846e-29  Max(alpha.water) = 1.0219
MULES: Correcting alpha.water
MULES: Correcting alpha.water
Phase-1 volume fraction = 0.195984  Min(alpha.water) = -2.07876e-14  Max(alpha.water) = 1.0219
GAMG:  Solving for p_rgh, Initial residual = 1.34828e-07, Final residual = 5.53655e-08, No Iterations 2
time step continuity errors : sum local = 2.01144e-07, global = -1.50234e-08, cumulative = 1.55041e-07
ExecutionTime = 126.55 s  ClockTime = 128 s

Courant Number mean: 5.71144e-05 max: 0.95269
Interface Courant Number mean: 1.25854e-07 max: 0.707115
deltaT = 1.04167e-07
Time = 1.29167e-06

PIMPLE: iteration 1
smoothSolver:  Solving for alpha.water, Initial residual = 2.68157e-07, Final residual = 3.60428e-11, No Iterations 1
Phase-1 volume fraction = 0.195984  Min(alpha.water) = -5.39517e-29  Max(alpha.water) = 1.0199
MULES: Correcting alpha.water
MULES: Correcting alpha.water
Phase-1 volume fraction = 0.195984  Min(alpha.water) = -1.46674e-14  Max(alpha.water) = 1.0199
GAMG:  Solving for p_rgh, Initial residual = 2.04321e-07, Final residual = 7.59015e-08, No Iterations 4
time step continuity errors : sum local = 1.86208e-07, global = -1.60303e-08, cumulative = 1.3901e-07
ExecutionTime = 134.41 s  ClockTime = 136 s

Courant Number mean: 5.68551e-05 max: 0.822418
Interface Courant Number mean: 1.20405e-07 max: 0.65924
deltaT = 1.04167e-07
Time = 1.39583e-06

PIMPLE: iteration 1
smoothSolver:  Solving for alpha.water, Initial residual = 2.55705e-07, Final residual = 3.46072e-11, No Iterations 1
Phase-1 volume fraction = 0.195984  Min(alpha.water) = -5.36325e-29  Max(alpha.water) = 1.01786
MULES: Correcting alpha.water
MULES: Correcting alpha.water
Phase-1 volume fraction = 0.195984  Min(alpha.water) = -1.98966e-14  Max(alpha.water) = 1.01786
GAMG:  Solving for p_rgh, Initial residual = 4.59728e-06, Final residual = 9.60027e-08, No Iterations 20
time step continuity errors : sum local = 6.7524e-09, global = -5.70601e-10, cumulative = 1.3844e-07
ExecutionTime = 145.17 s  ClockTime = 147 s

Courant Number mean: 6.27178e-05 max: 0.785681
Interface Courant Number mean: 1.40311e-07 max: 0.613535
deltaT = 1.04167e-07
Time = 1.5e-06

PIMPLE: iteration 1
smoothSolver:  Solving for alpha.water, Initial residual = 1.243e-07, Final residual = 4.07561e-11, No Iterations 1
Phase-1 volume fraction = 0.195984  Min(alpha.water) = -5.3192e-29  Max(alpha.water) = 1.01734
MULES: Correcting alpha.water
MULES: Correcting alpha.water
Phase-1 volume fraction = 0.195984  Min(alpha.water) = -4.67279e-14  Max(alpha.water) = 1.01734
GAMG:  Solving for p_rgh, Initial residual = 1.04384e-07, Final residual = 9.20369e-08, No Iterations 1
time step continuity errors : sum local = 2.57251e-07, global = 6.66041e-09, cumulative = 1.451e-07
ExecutionTime = 152.37 s  ClockTime = 154 s

Courant Number mean: 6.72806e-05 max: 0.848072
Interface Courant Number mean: 1.53665e-07 max: 0.577728
deltaT = 1.25e-07
Time = 1.625e-06

PIMPLE: iteration 1
smoothSolver:  Solving for alpha.water, Initial residual = 4.13657e-07, Final residual = 1.48442e-10, No Iterations 1
Phase-1 volume fraction = 0.195984  Min(alpha.water) = -5.22543e-29  Max(alpha.water) = 1.01443
MULES: Correcting alpha.water
MULES: Correcting alpha.water
Phase-1 volume fraction = 0.195984  Min(alpha.water) = -1.70781e-13  Max(alpha.water) = 1.01443
GAMG:  Solving for p_rgh, Initial residual = 2.38303e-07, Final residual = 8.03553e-08, No Iterations 3
time step continuity errors : sum local = 2.45158e-07, global = 2.06073e-08, cumulative = 1.65708e-07
ExecutionTime = 160.27 s  ClockTime = 162 s

Courant Number mean: 8.34875e-05 max: 1.05915
Interface Courant Number mean: 1.92764e-07 max: 0.793423
deltaT = 1.25e-07
Time = 1.75e-06

PIMPLE: iteration 1
smoothSolver:  Solving for alpha.water, Initial residual = 3.7527e-07, Final residual = 1.31597e-10, No Iterations 1
Phase-1 volume fraction = 0.195984  Min(alpha.water) = -5.52617e-29  Max(alpha.water) = 1.01599
MULES: Correcting alpha.water
MULES: Correcting alpha.water
Phase-1 volume fraction = 0.195984  Min(alpha.water) = -2.49233e-13  Max(alpha.water) = 1.01599
GAMG:  Solving for p_rgh, Initial residual = 5.2699e-07, Final residual = 8.82456e-08, No Iterations 9
time step continuity errors : sum local = 1.21072e-07, global = 9.85645e-09, cumulative = 1.75564e-07
ExecutionTime = 168.87 s  ClockTime = 170 s

Courant Number mean: 7.90709e-05 max: 1.01085
Interface Courant Number mean: 1.80449e-07 max: 0.739311
deltaT = 1.25e-07
Time = 1.875e-06

PIMPLE: iteration 1
smoothSolver:  Solving for alpha.water, Initial residual = 2.56751e-07, Final residual = 9.42695e-11, No Iterations 1
Phase-1 volume fraction = 0.195985  Min(alpha.water) = -6.24035e-29  Max(alpha.water) = 1.01423
MULES: Correcting alpha.water
MULES: Correcting alpha.water
Phase-1 volume fraction = 0.195985  Min(alpha.water) = -2.2339e-13  Max(alpha.water) = 1.01423
GAMG:  Solving for p_rgh, Initial residual = 2.60085e-07, Final residual = 4.9534e-08, No Iterations 1
time step continuity errors : sum local = 1.02081e-07, global = -2.11803e-10, cumulative = 1.75352e-07
ExecutionTime = 176.02 s  ClockTime = 178 s

Courant Number mean: 7.4744e-05 max: 0.963159
Interface Courant Number mean: 2.79682e-07 max: 0.703099
deltaT = 1.25e-07
Time = 2e-06

PIMPLE: iteration 1
smoothSolver:  Solving for alpha.water, Initial residual = 2.29944e-07, Final residual = 6.94448e-11, No Iterations 1
Phase-1 volume fraction = 0.195985  Min(alpha.water) = -2.79279e-19  Max(alpha.water) = 1.01477
MULES: Correcting alpha.water
MULES: Correcting alpha.water
Phase-1 volume fraction = 0.195985  Min(alpha.water) = -2.58119e-13  Max(alpha.water) = 1.01477
GAMG:  Solving for p_rgh, Initial residual = 1.3668e-07, Final residual = 5.92805e-08, No Iterations 2
time step continuity errors : sum local = 1.21225e-07, global = -1.00541e-08, cumulative = 1.65298e-07
ExecutionTime = 183.54 s  ClockTime = 185 s

Courant Number mean: 7.17708e-05 max: 0.924969
Interface Courant Number mean: 2.85393e-07 max: 0.671016
deltaT = 1.25e-07
Time = 2.125e-06

PIMPLE: iteration 1
smoothSolver:  Solving for alpha.water, Initial residual = 2.37038e-07, Final residual = 5.944e-11, No Iterations 1
Phase-1 volume fraction = 0.195985  Min(alpha.water) = -1.50948e-18  Max(alpha.water) = 1.01601
MULES: Correcting alpha.water
MULES: Correcting alpha.water
Phase-1 volume fraction = 0.195985  Min(alpha.water) = -2.96558e-13  Max(alpha.water) = 1.01601
GAMG:  Solving for p_rgh, Initial residual = 1.7957e-07, Final residual = 9.77676e-08, No Iterations 4
time step continuity errors : sum local = 1.45722e-07, global = -1.17325e-08, cumulative = 1.53566e-07
ExecutionTime = 191.69 s  ClockTime = 193 s

Courant Number mean: 7.13507e-05 max: 0.916351
Interface Courant Number mean: 2.82066e-07 max: 0.640006
deltaT = 1.25e-07
Time = 2.25e-06

PIMPLE: iteration 1
smoothSolver:  Solving for alpha.water, Initial residual = 2.56593e-07, Final residual = 5.95144e-11, No Iterations 1
Phase-1 volume fraction = 0.195985  Min(alpha.water) = -2.81457e-18  Max(alpha.water) = 1.01722
MULES: Correcting alpha.water
MULES: Correcting alpha.water
Phase-1 volume fraction = 0.195985  Min(alpha.water) = -3.51115e-13  Max(alpha.water) = 1.01722
GAMG:  Solving for p_rgh, Initial residual = 8.58403e-07, Final residual = 8.12673e-08, No Iterations 15
time step continuity errors : sum local = 2.12077e-08, global = -1.71452e-09, cumulative = 1.51851e-07
ExecutionTime = 201.4 s  ClockTime = 203 s

Courant Number mean: 7.48096e-05 max: 0.966765
Interface Courant Number mean: 3.072e-07 max: 0.605395
deltaT = 1.25e-07
Time = 2.375e-06

PIMPLE: iteration 1
smoothSolver:  Solving for alpha.water, Initial residual = 1.59924e-07, Final residual = 6.16686e-11, No Iterations 1
Phase-1 volume fraction = 0.195985  Min(alpha.water) = -3.76962e-18  Max(alpha.water) = 1.01659
MULES: Correcting alpha.water
MULES: Correcting alpha.water
Phase-1 volume fraction = 0.195985  Min(alpha.water) = -3.0967e-13  Max(alpha.water) = 1.01659
GAMG:  Solving for p_rgh, Initial residual = 1.39383e-07, Final residual = 3.80676e-08, No Iterations 1
time step continuity errors : sum local = 6.73475e-08, global = 8.63229e-09, cumulative = 1.60483e-07
ExecutionTime = 208.73 s  ClockTime = 211 s

Courant Number mean: 7.83815e-05 max: 1.01612
Interface Courant Number mean: 3.3165e-07 max: 0.575827
deltaT = 1.25e-07
Time = 2.5e-06

PIMPLE: iteration 1
smoothSolver:  Solving for alpha.water, Initial residual = 2.0757e-07, Final residual = 7.8935e-11, No Iterations 1
Phase-1 volume fraction = 0.195985  Min(alpha.water) = -3.41199e-18  Max(alpha.water) = 1.0162
MULES: Correcting alpha.water
MULES: Correcting alpha.water
Phase-1 volume fraction = 0.195985  Min(alpha.water) = -5.02736e-13  Max(alpha.water) = 1.0162
GAMG:  Solving for p_rgh, Initial residual = 1.01051e-07, Final residual = 8.45907e-08, No Iterations 2
time step continuity errors : sum local = 1.45041e-07, global = 1.21905e-08, cumulative = 1.72674e-07
ExecutionTime = 216.25 s  ClockTime = 218 s

Courant Number mean: 8.00277e-05 max: 1.0398
Interface Courant Number mean: 3.44453e-07 max: 0.550867
deltaT = 1.25e-07
Time = 2.625e-06

PIMPLE: iteration 1
smoothSolver:  Solving for alpha.water, Initial residual = 2.77839e-07, Final residual = 9.20787e-11, No Iterations 1
Phase-1 volume fraction = 0.195985  Min(alpha.water) = -9.43671e-19  Max(alpha.water) = 1.01706
MULES: Correcting alpha.water
MULES: Correcting alpha.water
Phase-1 volume fraction = 0.195985  Min(alpha.water) = -7.4123e-13  Max(alpha.water) = 1.01706
GAMG:  Solving for p_rgh, Initial residual = 3.16454e-07, Final residual = 8.90955e-08, No Iterations 6
time step continuity errors : sum local = 7.39512e-08, global = 6.07285e-09, cumulative = 1.78747e-07
ExecutionTime = 224.48 s  ClockTime = 226 s

Courant Number mean: 7.7702e-05 max: 1.01465
Interface Courant Number mean: 3.30178e-07 max: 0.527149
deltaT = 1.25e-07
Time = 2.75e-06

PIMPLE: iteration 1
smoothSolver:  Solving for alpha.water, Initial residual = 2.1009e-07, Final residual = 7.44389e-11, No Iterations 1
Phase-1 volume fraction = 0.195986  Min(alpha.water) = -5.38277e-29  Max(alpha.water) = 1.01719
MULES: Correcting alpha.water
MULES: Correcting alpha.water
Phase-1 volume fraction = 0.195986  Min(alpha.water) = -6.93934e-13  Max(alpha.water) = 1.01719
GAMG:  Solving for p_rgh, Initial residual = 1.05063e-07, Final residual = 1.2943e-08, No Iterations 1
time step continuity errors : sum local = 1.40686e-08, global = 1.54741e-10, cumulative = 1.78901e-07
ExecutionTime = 231.64 s  ClockTime = 234 s

Courant Number mean: 7.54192e-05 max: 0.991872
Interface Courant Number mean: 3.15513e-07 max: 0.505813
deltaT = 1.25e-07
Time = 2.875e-06

PIMPLE: iteration 1
smoothSolver:  Solving for alpha.water, Initial residual = 1.5465e-07, Final residual = 6.22466e-11, No Iterations 1
Phase-1 volume fraction = 0.195986  Min(alpha.water) = -1.56067e-28  Max(alpha.water) = 1.01707
MULES: Correcting alpha.water
MULES: Correcting alpha.water
Phase-1 volume fraction = 0.195986  Min(alpha.water) = -7.68859e-13  Max(alpha.water) = 1.01707
GAMG:  Solving for p_rgh, Initial residual = 7.30159e-08, Final residual = 7.30159e-08, No Iterations 0
time step continuity errors : sum local = 7.93444e-08, global = -5.76257e-09, cumulative = 1.73139e-07
ExecutionTime = 238.89 s  ClockTime = 241 s

Courant Number mean: 7.3178e-05 max: 0.967061
Interface Courant Number mean: 2.99723e-07 max: 0.487401
deltaT = 1.25e-07
Time = 3e-06

PIMPLE: iteration 1
smoothSolver:  Solving for alpha.water, Initial residual = 1.97e-07, Final residual = 5.96377e-11, No Iterations 1
Phase-1 volume fraction = 0.195986  Min(alpha.water) = -2.42759e-28  Max(alpha.water) = 1.01789
MULES: Correcting alpha.water
MULES: Correcting alpha.water
Phase-1 volume fraction = 0.195986  Min(alpha.water) = -7.93074e-13  Max(alpha.water) = 1.01787
GAMG:  Solving for p_rgh, Initial residual = 1.48041e-07, Final residual = 8.90956e-08, No Iterations 2
time step continuity errors : sum local = 9.68179e-08, global = -8.09278e-09, cumulative = 1.65046e-07
ExecutionTime = 246.57 s  ClockTime = 249 s

Courant Number mean: 7.22873e-05 max: 0.958683
Interface Courant Number mean: 2.86499e-07 max: 0.472112
deltaT = 1.25e-07
Time = 3.125e-06

PIMPLE: iteration 1
smoothSolver:  Solving for alpha.water, Initial residual = 2.17205e-07, Final residual = 5.51227e-11, No Iterations 1
Phase-1 volume fraction = 0.195986  Min(alpha.water) = -3.08174e-28  Max(alpha.water) = 1.01784
MULES: Correcting alpha.water
MULES: Correcting alpha.water
Phase-1 volume fraction = 0.195986  Min(alpha.water) = -1.16332e-12  Max(alpha.water) = 1.01783
GAMG:  Solving for p_rgh, Initial residual = 3.52249e-07, Final residual = 9.95804e-08, No Iterations 6
time step continuity errors : sum local = 4.42264e-08, global = -3.68336e-09, cumulative = 1.61363e-07
ExecutionTime = 254.76 s  ClockTime = 257 s

Courant Number mean: 7.4046e-05 max: 0.983497
Interface Courant Number mean: 2.93784e-07 max: 0.458621
deltaT = 1.25e-07
Time = 3.25e-06

PIMPLE: iteration 1
smoothSolver:  Solving for alpha.water, Initial residual = 1.77653e-07, Final residual = 5.61874e-11, No Iterations 1
Phase-1 volume fraction = 0.195986  Min(alpha.water) = -3.37067e-28  Max(alpha.water) = 1.01778
MULES: Correcting alpha.water
MULES: Correcting alpha.water
Phase-1 volume fraction = 0.195986  Min(alpha.water) = -1.73791e-12  Max(alpha.water) = 1.01776
GAMG:  Solving for p_rgh, Initial residual = 1.06082e-07, Final residual = 2.62755e-08, No Iterations 1
time step continuity errors : sum local = 2.25203e-08, global = 4.38715e-11, cumulative = 1.61407e-07
ExecutionTime = 261.78 s  ClockTime = 265 s

Courant Number mean: 7.55983e-05 max: 1.00328
Interface Courant Number mean: 3.02216e-07 max: 0.446419
deltaT = 1.25e-07
Time = 3.375e-06

PIMPLE: iteration 1
smoothSolver:  Solving for alpha.water, Initial residual = 1.61241e-07, Final residual = 6.01092e-11, No Iterations 1
Phase-1 volume fraction = 0.195986  Min(alpha.water) = -3.51497e-28  Max(alpha.water) = 1.01708
MULES: Correcting alpha.water
MULES: Correcting alpha.water
Phase-1 volume fraction = 0.195986  Min(alpha.water) = -1.98959e-12  Max(alpha.water) = 1.01706
GAMG:  Solving for p_rgh, Initial residual = 7.7478e-08, Final residual = 7.7478e-08, No Iterations 0
time step continuity errors : sum local = 6.16189e-08, global = 3.77081e-09, cumulative = 1.65177e-07
ExecutionTime = 268.49 s  ClockTime = 272 s

Courant Number mean: 7.71645e-05 max: 1.02232
Interface Courant Number mean: 3.07784e-07 max: 0.435615
deltaT = 1.25e-07
Time = 3.5e-06

PIMPLE: iteration 1
smoothSolver:  Solving for alpha.water, Initial residual = 1.90335e-07, Final residual = 7.07658e-11, No Iterations 1
Phase-1 volume fraction = 0.195986  Min(alpha.water) = -3.6691e-28  Max(alpha.water) = 1.01436
MULES: Correcting alpha.water
MULES: Correcting alpha.water
Phase-1 volume fraction = 0.195986  Min(alpha.water) = -1.21837e-11  Max(alpha.water) = 1.01436
GAMG:  Solving for p_rgh, Initial residual = 1.44781e-07, Final residual = 8.26818e-08, No Iterations 2
time step continuity errors : sum local = 6.57575e-08, global = 4.53575e-09, cumulative = 1.69713e-07
ExecutionTime = 275.96 s  ClockTime = 279 s

Courant Number mean: 7.72408e-05 max: 1.01972
Interface Courant Number mean: 3.08476e-07 max: 0.425876
deltaT = 1.25e-07
Time = 3.625e-06

PIMPLE: iteration 1
smoothSolver:  Solving for alpha.water, Initial residual = 1.9747e-07, Final residual = 6.83434e-11, No Iterations 1
Phase-1 volume fraction = 0.195987  Min(alpha.water) = -3.77497e-28  Max(alpha.water) = 1.01451
MULES: Correcting alpha.water
MULES: Correcting alpha.water
Phase-1 volume fraction = 0.195987  Min(alpha.water) = -1.84788e-12  Max(alpha.water) = 1.01451
GAMG:  Solving for p_rgh, Initial residual = 3.30345e-06, Final residual = 9.2764e-08, No Iterations 24
time step continuity errors : sum local = 4.26372e-09, global = 4.09395e-10, cumulative = 1.70123e-07
ExecutionTime = 287.36 s  ClockTime = 291 s

Courant Number mean: 7.5538e-05 max: 0.99805
Interface Courant Number mean: 2.96936e-07 max: 0.415963
deltaT = 1.25e-07
Time = 3.75e-06

PIMPLE: iteration 1
smoothSolver:  Solving for alpha.water, Initial residual = 1.50512e-07, Final residual = 5.65493e-11, No Iterations 1
Phase-1 volume fraction = 0.195987  Min(alpha.water) = -5.40843e-28  Max(alpha.water) = 1.01447
MULES: Correcting alpha.water
MULES: Correcting alpha.water
Phase-1 volume fraction = 0.195987  Min(alpha.water) = -7.65312e-12  Max(alpha.water) = 1.01447
GAMG:  Solving for p_rgh, Initial residual = 1.39313e-07, Final residual = 6.36953e-08, No Iterations 1
time step continuity errors : sum local = 5.36491e-08, global = -2.92242e-09, cumulative = 1.672e-07
ExecutionTime = 294.44 s  ClockTime = 298 s

Courant Number mean: 7.40159e-05 max: 0.980529
Interface Courant Number mean: 2.8797e-07 max: 0.407087
deltaT = 1.25e-07
Time = 3.875e-06

PIMPLE: iteration 1
smoothSolver:  Solving for alpha.water, Initial residual = 1.85158e-07, Final residual = 5.58458e-11, No Iterations 1
Phase-1 volume fraction = 0.195987  Min(alpha.water) = -6.30124e-28  Max(alpha.water) = 1.01476
MULES: Correcting alpha.water
MULES: Correcting alpha.water
Phase-1 volume fraction = 0.195987  Min(alpha.water) = -7.43605e-13  Max(alpha.water) = 1.01476
GAMG:  Solving for p_rgh, Initial residual = 1.58316e-07, Final residual = 7.32352e-08, No Iterations 3
time step continuity errors : sum local = 5.34009e-08, global = -5.77738e-09, cumulative = 1.61423e-07
ExecutionTime = 302.06 s  ClockTime = 306 s

Courant Number mean: 7.32596e-05 max: 0.965552
Interface Courant Number mean: 2.83065e-07 max: 0.398888
deltaT = 1.25e-07
Time = 4e-06

PIMPLE: iteration 1
smoothSolver:  Solving for alpha.water, Initial residual = 1.84332e-07, Final residual = 5.0674e-11, No Iterations 1
Phase-1 volume fraction = 0.195987  Min(alpha.water) = -5.88472e-28  Max(alpha.water) = 1.01434
MULES: Correcting alpha.water
MULES: Correcting alpha.water
Phase-1 volume fraction = 0.195987  Min(alpha.water) = -3.20001e-11  Max(alpha.water) = 1.01434
GAMG:  Solving for p_rgh, Initial residual = 4.28211e-07, Final residual = 9.34262e-08, No Iterations 7
time step continuity errors : sum local = 3.28324e-08, global = -3.129e-09, cumulative = 1.58294e-07
ExecutionTime = 310.72 s  ClockTime = 315 s

Courant Number mean: 7.4271e-05 max: 0.976313
Interface Courant Number mean: 2.27671e-07 max: 0.391677
deltaT = 1.25e-07
Time = 4.125e-06

PIMPLE: iteration 1
smoothSolver:  Solving for alpha.water, Initial residual = 1.68801e-07, Final residual = 5.05608e-11, No Iterations 1
Phase-1 volume fraction = 0.195987  Min(alpha.water) = -2.43592e-28  Max(alpha.water) = 1.01461
MULES: Correcting alpha.water
MULES: Correcting alpha.water
Phase-1 volume fraction = 0.195987  Min(alpha.water) = -2.28052e-11  Max(alpha.water) = 1.01461
GAMG:  Solving for p_rgh, Initial residual = 3.11275e-07, Final residual = 5.43114e-08, No Iterations 1
time step continuity errors : sum local = 2.66204e-08, global = -5.90933e-10, cumulative = 1.57703e-07
ExecutionTime = 318.01 s  ClockTime = 322 s

Courant Number mean: 7.52918e-05 max: 0.983759
Interface Courant Number mean: 1.89468e-07 max: 0.385397
deltaT = 1.25e-07
Time = 4.25e-06

PIMPLE: iteration 1
smoothSolver:  Solving for alpha.water, Initial residual = 1.66425e-07, Final residual = 5.14484e-11, No Iterations 1
Phase-1 volume fraction = 0.195987  Min(alpha.water) = -2.55694e-28  Max(alpha.water) = 1.01439
MULES: Correcting alpha.water
MULES: Correcting alpha.water
Phase-1 volume fraction = 0.195987  Min(alpha.water) = -7.11501e-15  Max(alpha.water) = 1.01439
GAMG:  Solving for p_rgh, Initial residual = 1.58808e-07, Final residual = 3.85825e-08, No Iterations 1
time step continuity errors : sum local = 1.88516e-08, global = 2.03188e-09, cumulative = 1.59735e-07
ExecutionTime = 325.27 s  ClockTime = 329 s

Courant Number mean: 7.62908e-05 max: 0.99158
Interface Courant Number mean: 1.77351e-07 max: 0.379839
deltaT = 1.25e-07
Time = 4.375e-06

PIMPLE: iteration 1
smoothSolver:  Solving for alpha.water, Initial residual = 1.61986e-07, Final residual = 5.09713e-11, No Iterations 1
Phase-1 volume fraction = 0.195987  Min(alpha.water) = -5.34571e-28  Max(alpha.water) = 1.01397
MULES: Correcting alpha.water
MULES: Correcting alpha.water
Phase-1 volume fraction = 0.195987  Min(alpha.water) = -7.75715e-15  Max(alpha.water) = 1.01397
GAMG:  Solving for p_rgh, Initial residual = 1.10313e-07, Final residual = 7.57435e-08, No Iterations 2
time step continuity errors : sum local = 3.6178e-08, global = 3.66051e-09, cumulative = 1.63395e-07
ExecutionTime = 332.78 s  ClockTime = 337 s

Courant Number mean: 7.68554e-05 max: 0.99527
Interface Courant Number mean: 1.72622e-07 max: 0.374728
deltaT = 1.25e-07
Time = 4.5e-06

PIMPLE: iteration 1
smoothSolver:  Solving for alpha.water, Initial residual = 1.78181e-07, Final residual = 5.13053e-11, No Iterations 1
Phase-1 volume fraction = 0.195988  Min(alpha.water) = -1.13508e-27  Max(alpha.water) = 1.01415
MULES: Correcting alpha.water
MULES: Correcting alpha.water
Phase-1 volume fraction = 0.195988  Min(alpha.water) = -7.64436e-15  Max(alpha.water) = 1.01415
GAMG:  Solving for p_rgh, Initial residual = 2.48113e-07, Final residual = 8.34599e-08, No Iterations 6
time step continuity errors : sum local = 2.4581e-08, global = 2.29685e-09, cumulative = 1.65692e-07
ExecutionTime = 341.12 s  ClockTime = 345 s

Courant Number mean: 7.62329e-05 max: 0.984458
Interface Courant Number mean: 1.81692e-07 max: 0.370229
deltaT = 1.25e-07
Time = 4.625e-06

PIMPLE: iteration 1
smoothSolver:  Solving for alpha.water, Initial residual = 1.66891e-07, Final residual = 4.594e-11, No Iterations 1
Phase-1 volume fraction = 0.195988  Min(alpha.water) = -1.42567e-26  Max(alpha.water) = 1.01427
MULES: Correcting alpha.water
MULES: Correcting alpha.water
Phase-1 volume fraction = 0.195988  Min(alpha.water) = -6.38401e-15  Max(alpha.water) = 1.01427
GAMG:  Solving for p_rgh, Initial residual = 1.96863e-07, Final residual = 8.48083e-08, No Iterations 1
time step continuity errors : sum local = 2.05826e-08, global = 3.01261e-10, cumulative = 1.65993e-07
ExecutionTime = 348.42 s  ClockTime = 353 s

Courant Number mean: 7.55085e-05 max: 0.973202
Interface Courant Number mean: 1.844e-07 max: 0.365934
deltaT = 1.25e-07
Time = 4.75e-06

PIMPLE: iteration 1
smoothSolver:  Solving for alpha.water, Initial residual = 1.60889e-07, Final residual = 4.22779e-11, No Iterations 1
Phase-1 volume fraction = 0.195988  Min(alpha.water) = -4.03933e-25  Max(alpha.water) = 1.01433
MULES: Correcting alpha.water
MULES: Correcting alpha.water
Phase-1 volume fraction = 0.195988  Min(alpha.water) = -4.45026e-15  Max(alpha.water) = 1.01433
GAMG:  Solving for p_rgh, Initial residual = 1.91569e-07, Final residual = 5.76068e-08, No Iterations 1
time step continuity errors : sum local = 1.67113e-08, global = -1.11698e-09, cumulative = 1.64876e-07
ExecutionTime = 355.81 s  ClockTime = 360 s

Courant Number mean: 7.48517e-05 max: 0.961926
Interface Courant Number mean: 1.94589e-07 max: 0.361911
deltaT = 1.25e-07
Time = 4.875e-06

PIMPLE: iteration 1
smoothSolver:  Solving for alpha.water, Initial residual = 1.5878e-07, Final residual = 3.75187e-11, No Iterations 1
Phase-1 volume fraction = 0.195988  Min(alpha.water) = -6.59893e-25  Max(alpha.water) = 1.01423
MULES: Correcting alpha.water
MULES: Correcting alpha.water
Phase-1 volume fraction = 0.195988  Min(alpha.water) = -2.17944e-15  Max(alpha.water) = 1.01423
GAMG:  Solving for p_rgh, Initial residual = 1.7051e-07, Final residual = 9.64936e-08, No Iterations 2
time step continuity errors : sum local = 2.71957e-08, global = -1.9419e-09, cumulative = 1.62934e-07
ExecutionTime = 363.39 s  ClockTime = 368 s

Courant Number mean: 7.44844e-05 max: 0.951966
Interface Courant Number mean: 1.9821e-07 max: 0.357756
deltaT = 1.25e-07
Time = 5e-06

PIMPLE: iteration 1
smoothSolver:  Solving for alpha.water, Initial residual = 1.67499e-07, Final residual = 3.52793e-11, No Iterations 1
Phase-1 volume fraction = 0.195988  Min(alpha.water) = -1.10484e-24  Max(alpha.water) = 1.01433
MULES: Correcting alpha.water
MULES: Correcting alpha.water
Phase-1 volume fraction = 0.195988  Min(alpha.water) = -1.66693e-15  Max(alpha.water) = 1.01433
GAMG:  Solving for p_rgh, Initial residual = 2.97929e-07, Final residual = 9.31143e-08, No Iterations 7
time step continuity errors : sum local = 1.70245e-08, global = -1.50728e-09, cumulative = 1.61427e-07
ExecutionTime = 371.74 s  ClockTime = 376 s

End

Finalising parallel run
/*---------------------------------------------------------------------------*\
| =========                 |                                                 |
| \\      /  F ield         | OpenFOAM: The Open Source CFD Toolbox           |
|  \\    /   O peration     | Version:  2212                                  |
|   \\  /    A nd           | Website:  www.openfoam.com                      |
|    \\/     M anipulation  |                                                 |
\*---------------------------------------------------------------------------*/
Build  : _fd8c5e00-20221221 OPENFOAM=2212 version=2212
Arch   : "LSB;label=32;scalar=64"
Exec   : interFoam -parallel
Date   : Jan 01 2023
Time   : 14:42:45
Host   : Ubuntu-OpenFOAM
PID    : 393657
I/O    : uncollated
Case   : /home/daiji/OpenFOAM/nozzle_extended/nozzle_extended_00
nProcs : 8
Hosts  :
(
    (Ubuntu-OpenFOAM 8)
)
Pstream initialized with:
    floatTransfer      : 0
    nProcsSimpleSum    : 0
    commsType          : nonBlocking
    polling iterations : 0
trapFpe: Floating point exception trapping enabled (FOAM_SIGFPE).
fileModificationChecking : Monitoring run-time modified files using timeStampMaster (fileModificationSkew 5, maxFileModificationPolls 20)
allowSystemOperations : Allowing user-supplied system call operations

// * * * * * * * * * * * * * * * * * * * * * * * * * * * * * * * * * * * * * //
Create time

Create mesh for time = 5e-06


PIMPLE: Operating solver in PISO mode

Reading field p_rgh

Reading field U

Reading/calculating face flux field phi

Reading transportProperties

Selecting incompressible transport model Newtonian
Selecting incompressible transport model Newtonian
Selecting turbulence model type laminar
Selecting laminar stress model Stokes

Reading g

Reading hRef
Calculating field g.h

No MRF models present

No finite volume options present
Restarting alpha
GAMG:  Solving for pcorr, Initial residual = 1, Final residual = 7.55504e-06, No Iterations 87
time step continuity errors : sum local = 1.28621e-13, global = -9.0162e-15, cumulative = 1.61427e-07
Courant Number mean: 7.53322e-05 max: 0.960733

Starting time loop

Courant Number mean: 7.53322e-05 max: 0.960733
Interface Courant Number mean: 2.94314e-07 max: 0.360839
deltaT = 1.30039e-07
Time = 5.13004e-06

PIMPLE: iteration 1
smoothSolver:  Solving for alpha.water, Initial residual = 1.53313e-07, Final residual = 3.76842e-11, No Iterations 1
Phase-1 volume fraction = 0.195988  Min(alpha.water) = -1.84668e-24  Max(alpha.water) = 1.01424
MULES: Correcting alpha.water
MULES: Correcting alpha.water
Phase-1 volume fraction = 0.195988  Min(alpha.water) = -2.31272e-15  Max(alpha.water) = 1.01424
GAMG:  Solving for p_rgh, Initial residual = 5.44826e-07, Final residual = 4.27975e-08, No Iterations 3
time step continuity errors : sum local = 5.10862e-09, global = 2.15104e-10, cumulative = 1.61642e-07
ExecutionTime = 28.34 s  ClockTime = 29 s

Courant Number mean: 7.85071e-05 max: 0.989118
Interface Courant Number mean: 3.30139e-07 max: 0.369344
deltaT = 1.31408e-07
Time = 5.26145e-06

PIMPLE: iteration 1
smoothSolver:  Solving for alpha.water, Initial residual = 1.57966e-07, Final residual = 3.65098e-11, No Iterations 1
Phase-1 volume fraction = 0.195988  Min(alpha.water) = -3.34942e-24  Max(alpha.water) = 1.01414
MULES: Correcting alpha.water
MULES: Correcting alpha.water
Phase-1 volume fraction = 0.195988  Min(alpha.water) = -3.1322e-15  Max(alpha.water) = 1.01414
GAMG:  Solving for p_rgh, Initial residual = 2.72477e-07, Final residual = 8.78965e-08, No Iterations 1
time step continuity errors : sum local = 7.71858e-09, global = 3.77011e-10, cumulative = 1.62019e-07
ExecutionTime = 35.44 s  ClockTime = 36 s

Courant Number mean: 7.94453e-05 max: 0.991438
Interface Courant Number mean: 3.3908e-07 max: 0.368026
deltaT = 1.32455e-07
Time = 5.3939e-06

PIMPLE: iteration 1
smoothSolver:  Solving for alpha.water, Initial residual = 1.61762e-07, Final residual = 3.52565e-11, No Iterations 1
Phase-1 volume fraction = 0.195989  Min(alpha.water) = -5.67149e-24  Max(alpha.water) = 1.014
MULES: Correcting alpha.water
MULES: Correcting alpha.water
Phase-1 volume fraction = 0.195989  Min(alpha.water) = -6.83892e-15  Max(alpha.water) = 1.014
GAMG:  Solving for p_rgh, Initial residual = 2.61223e-07, Final residual = 9.59117e-08, No Iterations 3
time step continuity errors : sum local = 7.73295e-09, global = 4.86739e-10, cumulative = 1.62506e-07
ExecutionTime = 43.56 s  ClockTime = 44 s

Courant Number mean: 8.00776e-05 max: 0.991539
Interface Courant Number mean: 3.50838e-07 max: 0.366705
deltaT = 1.3352e-07
Time = 5.52742e-06

PIMPLE: iteration 1
smoothSolver:  Solving for alpha.water, Initial residual = 1.62972e-07, Final residual = 3.36564e-11, No Iterations 1
Phase-1 volume fraction = 0.195989  Min(alpha.water) = -9.03555e-24  Max(alpha.water) = 1.01394
MULES: Correcting alpha.water
MULES: Correcting alpha.water
Phase-1 volume fraction = 0.195989  Min(alpha.water) = -1.03553e-14  Max(alpha.water) = 1.01394
GAMG:  Solving for p_rgh, Initial residual = 6.49189e-07, Final residual = 9.64328e-08, No Iterations 5
time step continuity errors : sum local = 3.7198e-09, global = 2.69059e-10, cumulative = 1.62775e-07
ExecutionTime = 51.86 s  ClockTime = 52 s

Courant Number mean: 8.05681e-05 max: 0.990751
Interface Courant Number mean: 3.52198e-07 max: 0.370121
deltaT = 1.34787e-07
Time = 5.66221e-06

PIMPLE: iteration 1
smoothSolver:  Solving for alpha.water, Initial residual = 1.61377e-07, Final residual = 3.2172e-11, No Iterations 1
Phase-1 volume fraction = 0.195989  Min(alpha.water) = -1.37672e-23  Max(alpha.water) = 1.01383
MULES: Correcting alpha.water
MULES: Correcting alpha.water
Phase-1 volume fraction = 0.195989  Min(alpha.water) = -1.3204e-14  Max(alpha.water) = 1.01383
GAMG:  Solving for p_rgh, Initial residual = 8.66363e-07, Final residual = 7.05819e-08, No Iterations 3
time step continuity errors : sum local = 1.62643e-09, global = 4.15571e-11, cumulative = 1.62816e-07
ExecutionTime = 59.51 s  ClockTime = 60 s

Courant Number mean: 8.11972e-05 max: 0.991775
Interface Courant Number mean: 3.54303e-07 max: 0.374776
deltaT = 1.35893e-07
Time = 5.7981e-06

PIMPLE: iteration 1
smoothSolver:  Solving for alpha.water, Initial residual = 1.61123e-07, Final residual = 3.05847e-11, No Iterations 1
Phase-1 volume fraction = 0.195989  Min(alpha.water) = -4.55911e-20  Max(alpha.water) = 1.01373
MULES: Correcting alpha.water
MULES: Correcting alpha.water
Phase-1 volume fraction = 0.195989  Min(alpha.water) = -1.55833e-14  Max(alpha.water) = 1.01373
GAMG:  Solving for p_rgh, Initial residual = 4.80781e-07, Final residual = 9.94723e-08, No Iterations 5
time step continuity errors : sum local = 2.267e-09, global = -1.2541e-10, cumulative = 1.62691e-07
ExecutionTime = 67.7 s  ClockTime = 68 s

Courant Number mean: 8.17951e-05 max: 0.992062
Interface Courant Number mean: 3.56313e-07 max: 0.379916
deltaT = 1.37019e-07
Time = 5.93512e-06

PIMPLE: iteration 1
smoothSolver:  Solving for alpha.water, Initial residual = 1.62856e-07, Final residual = 2.91229e-11, No Iterations 1
Phase-1 volume fraction = 0.195989  Min(alpha.water) = -9.41388e-20  Max(alpha.water) = 1.01362
MULES: Correcting alpha.water
MULES: Correcting alpha.water
Phase-1 volume fraction = 0.195989  Min(alpha.water) = -1.75251e-14  Max(alpha.water) = 1.01362
GAMG:  Solving for p_rgh, Initial residual = 3.18473e-06, Final residual = 9.21553e-08, No Iterations 26
time step continuity errors : sum local = 2.9083e-10, global = -2.33512e-11, cumulative = 1.62668e-07
ExecutionTime = 79.65 s  ClockTime = 80 s

Courant Number mean: 8.25455e-05 max: 0.993891
Interface Courant Number mean: 3.58963e-07 max: 0.386192
deltaT = 1.37781e-07
Time = 6.0729e-06

PIMPLE: iteration 1
smoothSolver:  Solving for alpha.water, Initial residual = 1.62413e-07, Final residual = 2.75604e-11, No Iterations 1
Phase-1 volume fraction = 0.195989  Min(alpha.water) = -1.44231e-19  Max(alpha.water) = 1.01352
MULES: Correcting alpha.water
MULES: Correcting alpha.water
Phase-1 volume fraction = 0.195989  Min(alpha.water) = -1.88769e-14  Max(alpha.water) = 1.01352
GAMG:  Solving for p_rgh, Initial residual = 1.61015e-07, Final residual = 4.46232e-08, No Iterations 1
time step continuity errors : sum local = 2.35602e-09, global = 6.52811e-11, cumulative = 1.62733e-07
ExecutionTime = 87.09 s  ClockTime = 87 s

Courant Number mean: 8.30665e-05 max: 0.993013
Interface Courant Number mean: 3.60445e-07 max: 0.390947
deltaT = 1.38748e-07
Time = 6.21165e-06

PIMPLE: iteration 1
smoothSolver:  Solving for alpha.water, Initial residual = 1.64756e-07, Final residual = 2.61889e-11, No Iterations 1
Phase-1 volume fraction = 0.19599  Min(alpha.water) = -1.95222e-19  Max(alpha.water) = 1.01341
MULES: Correcting alpha.water
MULES: Correcting alpha.water
Phase-1 volume fraction = 0.19599  Min(alpha.water) = -1.967e-14  Max(alpha.water) = 1.01341
GAMG:  Solving for p_rgh, Initial residual = 1.46327e-07, Final residual = 6.9552e-08, No Iterations 1
time step continuity errors : sum local = 3.47137e-09, global = 1.65432e-10, cumulative = 1.62898e-07
ExecutionTime = 94.45 s  ClockTime = 95 s

Courant Number mean: 8.37056e-05 max: 0.993588
Interface Courant Number mean: 3.6265e-07 max: 0.394902
deltaT = 1.39729e-07
Time = 6.35138e-06

PIMPLE: iteration 1
smoothSolver:  Solving for alpha.water, Initial residual = 1.66589e-07, Final residual = 2.48236e-11, No Iterations 1
Phase-1 volume fraction = 0.19599  Min(alpha.water) = -2.45737e-19  Max(alpha.water) = 1.01331
MULES: Correcting alpha.water
MULES: Correcting alpha.water
Phase-1 volume fraction = 0.19599  Min(alpha.water) = -2.01397e-14  Max(alpha.water) = 1.01331
GAMG:  Solving for p_rgh, Initial residual = 2.40932e-07, Final residual = 8.52729e-08, No Iterations 1
time step continuity errors : sum local = 4.01058e-09, global = 2.58458e-10, cumulative = 1.63157e-07
ExecutionTime = 101.61 s  ClockTime = 102 s

Courant Number mean: 8.43443e-05 max: 0.994357
Interface Courant Number mean: 3.64572e-07 max: 0.398473
deltaT = 1.40525e-07
Time = 6.4919e-06

PIMPLE: iteration 1
smoothSolver:  Solving for alpha.water, Initial residual = 1.6819e-07, Final residual = 2.34742e-11, No Iterations 1
Phase-1 volume fraction = 0.19599  Min(alpha.water) = -2.95149e-19  Max(alpha.water) = 1.01319
MULES: Correcting alpha.water
MULES: Correcting alpha.water
Phase-1 volume fraction = 0.19599  Min(alpha.water) = -1.94702e-14  Max(alpha.water) = 1.01319
GAMG:  Solving for p_rgh, Initial residual = 2.99898e-07, Final residual = 8.67661e-08, No Iterations 1
time step continuity errors : sum local = 3.79733e-09, global = 3.61148e-10, cumulative = 1.63518e-07
ExecutionTime = 108.82 s  ClockTime = 109 s

Courant Number mean: 8.48678e-05 max: 0.993866
Interface Courant Number mean: 3.66262e-07 max: 0.401759
deltaT = 1.41332e-07
Time = 6.63324e-06

PIMPLE: iteration 1
smoothSolver:  Solving for alpha.water, Initial residual = 1.68816e-07, Final residual = 2.2191e-11, No Iterations 1
Phase-1 volume fraction = 0.19599  Min(alpha.water) = -3.42116e-19  Max(alpha.water) = 1.01308
MULES: Correcting alpha.water
MULES: Correcting alpha.water
Phase-1 volume fraction = 0.19599  Min(alpha.water) = -1.69121e-14  Max(alpha.water) = 1.01308
GAMG:  Solving for p_rgh, Initial residual = 3.1691e-07, Final residual = 9.75562e-08, No Iterations 5
time step continuity errors : sum local = 4.02676e-09, global = 2.78e-10, cumulative = 1.63796e-07
ExecutionTime = 116.83 s  ClockTime = 117 s

Courant Number mean: 8.52898e-05 max: 0.992574
Interface Courant Number mean: 3.67796e-07 max: 0.403612
deltaT = 1.42354e-07
Time = 6.77559e-06

PIMPLE: iteration 1
smoothSolver:  Solving for alpha.water, Initial residual = 1.70429e-07, Final residual = 2.09627e-11, No Iterations 1
Phase-1 volume fraction = 0.19599  Min(alpha.water) = -1.09352e-18  Max(alpha.water) = 1.01295
MULES: Correcting alpha.water
MULES: Correcting alpha.water
Phase-1 volume fraction = 0.19599  Min(alpha.water) = -1.48072e-14  Max(alpha.water) = 1.01295
GAMG:  Solving for p_rgh, Initial residual = 6.31236e-06, Final residual = 8.64285e-08, No Iterations 17
time step continuity errors : sum local = 2.20243e-10, global = 1.98292e-11, cumulative = 1.63816e-07
ExecutionTime = 126.91 s  ClockTime = 128 s

Courant Number mean: 8.57751e-05 max: 0.991882
Interface Courant Number mean: 3.67086e-07 max: 0.40586
deltaT = 1.43603e-07
Time = 6.91919e-06

PIMPLE: iteration 1
smoothSolver:  Solving for alpha.water, Initial residual = 1.69121e-07, Final residual = 1.98968e-11, No Iterations 1
Phase-1 volume fraction = 0.19599  Min(alpha.water) = -2.74346e-18  Max(alpha.water) = 1.01283
MULES: Correcting alpha.water
MULES: Correcting alpha.water
Phase-1 volume fraction = 0.19599  Min(alpha.water) = -1.45197e-14  Max(alpha.water) = 1.01283
GAMG:  Solving for p_rgh, Initial residual = 2.85107e-07, Final residual = 7.89646e-08, No Iterations 3
time step continuity errors : sum local = 2.49841e-09, global = -1.8535e-10, cumulative = 1.6363e-07
ExecutionTime = 134.38 s  ClockTime = 135 s

Courant Number mean: 8.64305e-05 max: 0.993041
Interface Courant Number mean: 3.67062e-07 max: 0.409238
deltaT = 1.44662e-07
Time = 7.06385e-06

PIMPLE: iteration 1
smoothSolver:  Solving for alpha.water, Initial residual = 1.71778e-07, Final residual = 1.89067e-11, No Iterations 1
Phase-1 volume fraction = 0.195991  Min(alpha.water) = -4.98459e-18  Max(alpha.water) = 1.01271
MULES: Correcting alpha.water
MULES: Correcting alpha.water
Phase-1 volume fraction = 0.195991  Min(alpha.water) = -1.58623e-14  Max(alpha.water) = 1.01271
GAMG:  Solving for p_rgh, Initial residual = 4.82583e-07, Final residual = 9.06655e-08, No Iterations 10
time step continuity errors : sum local = 1.7202e-09, global = -1.43001e-10, cumulative = 1.63487e-07
ExecutionTime = 143.32 s  ClockTime = 144 s

Courant Number mean: 8.71012e-05 max: 0.994103
Interface Courant Number mean: 3.69614e-07 max: 0.410543
deltaT = 1.45522e-07
Time = 7.20938e-06

PIMPLE: iteration 1
smoothSolver:  Solving for alpha.water, Initial residual = 1.72359e-07, Final residual = 1.79328e-11, No Iterations 1
Phase-1 volume fraction = 0.195991  Min(alpha.water) = -7.19792e-18  Max(alpha.water) = 1.01259
MULES: Correcting alpha.water
MULES: Correcting alpha.water
Phase-1 volume fraction = 0.195991  Min(alpha.water) = -3.15795e-14  Max(alpha.water) = 1.01259
GAMG:  Solving for p_rgh, Initial residual = 2.65112e-07, Final residual = 5.98066e-08, No Iterations 1
time step continuity errors : sum local = 2.02422e-09, global = -1.74466e-11, cumulative = 1.6347e-07
ExecutionTime = 150.43 s  ClockTime = 152 s

Courant Number mean: 8.76633e-05 max: 0.993818
Interface Courant Number mean: 3.67614e-07 max: 0.411928
deltaT = 1.46393e-07
Time = 7.35577e-06

PIMPLE: iteration 1
smoothSolver:  Solving for alpha.water, Initial residual = 1.72956e-07, Final residual = 1.70578e-11, No Iterations 1
Phase-1 volume fraction = 0.195991  Min(alpha.water) = -9.41576e-18  Max(alpha.water) = 1.01247
MULES: Correcting alpha.water
MULES: Correcting alpha.water
Phase-1 volume fraction = 0.195991  Min(alpha.water) = -1.68457e-12  Max(alpha.water) = 1.01247
GAMG:  Solving for p_rgh, Initial residual = 2.06176e-07, Final residual = 4.37609e-08, No Iterations 1
time step continuity errors : sum local = 1.69317e-09, global = 4.71771e-11, cumulative = 1.63517e-07
ExecutionTime = 157.59 s  ClockTime = 159 s

Courant Number mean: 8.82301e-05 max: 0.99356
Interface Courant Number mean: 3.64169e-07 max: 0.413193
deltaT = 1.47276e-07
Time = 7.50305e-06

PIMPLE: iteration 1
smoothSolver:  Solving for alpha.water, Initial residual = 1.74284e-07, Final residual = 1.61798e-11, No Iterations 1
Phase-1 volume fraction = 0.195991  Min(alpha.water) = -1.15913e-17  Max(alpha.water) = 1.01235
MULES: Correcting alpha.water
MULES: Correcting alpha.water
Phase-1 volume fraction = 0.195991  Min(alpha.water) = -7.53638e-13  Max(alpha.water) = 1.01235
GAMG:  Solving for p_rgh, Initial residual = 1.75315e-07, Final residual = 7.60613e-08, No Iterations 1
time step continuity errors : sum local = 2.94985e-09, global = 8.19478e-11, cumulative = 1.63599e-07
ExecutionTime = 164.75 s  ClockTime = 166 s

Courant Number mean: 8.87856e-05 max: 0.99334
Interface Courant Number mean: 3.63884e-07 max: 0.414439
deltaT = 1.48172e-07
Time = 7.65122e-06

PIMPLE: iteration 1
smoothSolver:  Solving for alpha.water, Initial residual = 1.76081e-07, Final residual = 1.54032e-11, No Iterations 1
Phase-1 volume fraction = 0.195991  Min(alpha.water) = -1.37195e-17  Max(alpha.water) = 1.01222
MULES: Correcting alpha.water
MULES: Correcting alpha.water
Phase-1 volume fraction = 0.195991  Min(alpha.water) = -1.7395e-12  Max(alpha.water) = 1.01222
GAMG:  Solving for p_rgh, Initial residual = 2.66764e-07, Final residual = 7.93434e-08, No Iterations 1
time step continuity errors : sum local = 2.735e-09, global = 1.42306e-10, cumulative = 1.63741e-07
ExecutionTime = 172.04 s  ClockTime = 173 s

Courant Number mean: 8.93512e-05 max: 0.993272
Interface Courant Number mean: 3.6124e-07 max: 0.415515
deltaT = 1.49079e-07
Time = 7.8003e-06

PIMPLE: iteration 1
smoothSolver:  Solving for alpha.water, Initial residual = 1.77173e-07, Final residual = 1.47107e-11, No Iterations 1
Phase-1 volume fraction = 0.195991  Min(alpha.water) = -1.14759e-14  Max(alpha.water) = 1.01209
MULES: Correcting alpha.water
MULES: Correcting alpha.water
Phase-1 volume fraction = 0.195991  Min(alpha.water) = -2.41995e-12  Max(alpha.water) = 1.01209
GAMG:  Solving for p_rgh, Initial residual = 2.83333e-07, Final residual = 6.24824e-08, No Iterations 1
time step continuity errors : sum local = 2.09758e-09, global = 2.10914e-10, cumulative = 1.63952e-07
ExecutionTime = 179.42 s  ClockTime = 181 s

Courant Number mean: 8.99221e-05 max: 0.99338
Interface Courant Number mean: 2.65496e-07 max: 0.416617
deltaT = 1.5e-07
Time = 7.9503e-06

PIMPLE: iteration 1
smoothSolver:  Solving for alpha.water, Initial residual = 1.77799e-07, Final residual = 1.41325e-11, No Iterations 1
Phase-1 volume fraction = 0.195992  Min(alpha.water) = -1.99445e-13  Max(alpha.water) = 1.01197
MULES: Correcting alpha.water
MULES: Correcting alpha.water
Phase-1 volume fraction = 0.195992  Min(alpha.water) = -1.92289e-12  Max(alpha.water) = 1.01197
GAMG:  Solving for p_rgh, Initial residual = 2.49126e-07, Final residual = 8.87088e-08, No Iterations 2
time step continuity errors : sum local = 2.90335e-09, global = 2.38817e-10, cumulative = 1.64191e-07
ExecutionTime = 186.99 s  ClockTime = 188 s

Courant Number mean: 9.04791e-05 max: 0.993471
Interface Courant Number mean: 2.29798e-07 max: 0.417723
deltaT = 1.50933e-07
Time = 8.10123e-06

PIMPLE: iteration 1
smoothSolver:  Solving for alpha.water, Initial residual = 1.79632e-07, Final residual = 1.37681e-11, No Iterations 1
Phase-1 volume fraction = 0.195992  Min(alpha.water) = -3.33434e-13  Max(alpha.water) = 1.01185
MULES: Correcting alpha.water
MULES: Correcting alpha.water
Phase-1 volume fraction = 0.195992  Min(alpha.water) = -1.29936e-12  Max(alpha.water) = 1.01185
GAMG:  Solving for p_rgh, Initial residual = 3.36228e-07, Final residual = 9.98091e-08, No Iterations 3
time step continuity errors : sum local = 2.36003e-09, global = 1.97862e-10, cumulative = 1.64389e-07
ExecutionTime = 194.68 s  ClockTime = 196 s

Courant Number mean: 9.10167e-05 max: 0.993309
Interface Courant Number mean: 2.29642e-07 max: 0.41891
deltaT = 1.51879e-07
Time = 8.25311e-06

PIMPLE: iteration 1
smoothSolver:  Solving for alpha.water, Initial residual = 1.80465e-07, Final residual = 1.39034e-11, No Iterations 1
Phase-1 volume fraction = 0.195992  Min(alpha.water) = -4.06892e-13  Max(alpha.water) = 1.01172
MULES: Correcting alpha.water
MULES: Correcting alpha.water
Phase-1 volume fraction = 0.195992  Min(alpha.water) = -6.70115e-13  Max(alpha.water) = 1.01172
GAMG:  Solving for p_rgh, Initial residual = 9.87493e-07, Final residual = 9.41552e-08, No Iterations 3
time step continuity errors : sum local = 1.00816e-09, global = 6.14631e-11, cumulative = 1.64451e-07
ExecutionTime = 202.56 s  ClockTime = 204 s

Courant Number mean: 9.15346e-05 max: 0.992835
Interface Courant Number mean: 2.30822e-07 max: 0.420109
deltaT = 1.53081e-07
Time = 8.40619e-06

PIMPLE: iteration 1
smoothSolver:  Solving for alpha.water, Initial residual = 1.80568e-07, Final residual = 1.42213e-11, No Iterations 1
Phase-1 volume fraction = 0.195992  Min(alpha.water) = -4.14548e-13  Max(alpha.water) = 1.01159
MULES: Correcting alpha.water
MULES: Correcting alpha.water
Phase-1 volume fraction = 0.195992  Min(alpha.water) = -7.46859e-13  Max(alpha.water) = 1.01159
GAMG:  Solving for p_rgh, Initial residual = 6.76486e-06, Final residual = 9.43456e-08, No Iterations 7
time step continuity errors : sum local = 1.24396e-10, global = -5.31587e-12, cumulative = 1.64445e-07
ExecutionTime = 210.81 s  ClockTime = 212 s

Courant Number mean: 9.22297e-05 max: 0.994248
Interface Courant Number mean: 2.32398e-07 max: 0.422009
deltaT = 1.54057e-07
Time = 8.56025e-06

PIMPLE: iteration 1
smoothSolver:  Solving for alpha.water, Initial residual = 1.81578e-07, Final residual = 1.45122e-11, No Iterations 1
Phase-1 volume fraction = 0.195992  Min(alpha.water) = -3.73914e-13  Max(alpha.water) = 1.01147
MULES: Correcting alpha.water
MULES: Correcting alpha.water
Phase-1 volume fraction = 0.195992  Min(alpha.water) = -7.77585e-13  Max(alpha.water) = 1.01147
GAMG:  Solving for p_rgh, Initial residual = 1.70582e-06, Final residual = 9.98802e-08, No Iterations 6
time step continuity errors : sum local = 4.18295e-10, global = -4.02753e-11, cumulative = 1.64405e-07
ExecutionTime = 219.1 s  ClockTime = 221 s

Courant Number mean: 9.28062e-05 max: 0.994396
Interface Courant Number mean: 2.34203e-07 max: 0.423098
deltaT = 1.55048e-07
Time = 8.71529e-06

PIMPLE: iteration 1
smoothSolver:  Solving for alpha.water, Initial residual = 1.82811e-07, Final residual = 1.47375e-11, No Iterations 1
Phase-1 volume fraction = 0.195992  Min(alpha.water) = -3.36515e-13  Max(alpha.water) = 1.01134
MULES: Correcting alpha.water
MULES: Correcting alpha.water
Phase-1 volume fraction = 0.195992  Min(alpha.water) = -4.65551e-12  Max(alpha.water) = 1.01134
GAMG:  Solving for p_rgh, Initial residual = 4.47525e-07, Final residual = 5.40279e-08, No Iterations 2
time step continuity errors : sum local = 7.987e-10, global = -5.01267e-11, cumulative = 1.64355e-07
ExecutionTime = 226.62 s  ClockTime = 228 s

Courant Number mean: 9.33981e-05 max: 0.994608
Interface Courant Number mean: 2.35438e-07 max: 0.424057
deltaT = 1.558e-07
Time = 8.87109e-06

PIMPLE: iteration 1
smoothSolver:  Solving for alpha.water, Initial residual = 1.83774e-07, Final residual = 1.48884e-11, No Iterations 1
Phase-1 volume fraction = 0.195993  Min(alpha.water) = -3.02315e-13  Max(alpha.water) = 1.01121
MULES: Correcting alpha.water
MULES: Correcting alpha.water
Phase-1 volume fraction = 0.195993  Min(alpha.water) = -5.63354e-12  Max(alpha.water) = 1.01121
GAMG:  Solving for p_rgh, Initial residual = 3.52739e-07, Final residual = 8.57421e-08, No Iterations 1
time step continuity errors : sum local = 1.53409e-09, global = -4.64232e-11, cumulative = 1.64308e-07
ExecutionTime = 233.8 s  ClockTime = 235 s

Courant Number mean: 9.38507e-05 max: 0.993302
Interface Courant Number mean: 2.36748e-07 max: 0.424275
deltaT = 1.56817e-07
Time = 9.02791e-06

PIMPLE: iteration 1
smoothSolver:  Solving for alpha.water, Initial residual = 1.84927e-07, Final residual = 1.50822e-11, No Iterations 1
Phase-1 volume fraction = 0.195993  Min(alpha.water) = -2.71068e-13  Max(alpha.water) = 1.01109
MULES: Correcting alpha.water
MULES: Correcting alpha.water
Phase-1 volume fraction = 0.195993  Min(alpha.water) = -7.36459e-12  Max(alpha.water) = 1.01109
GAMG:  Solving for p_rgh, Initial residual = 3.6351e-07, Final residual = 7.15499e-08, No Iterations 1
time step continuity errors : sum local = 1.42588e-09, global = -5.14647e-11, cumulative = 1.64257e-07
ExecutionTime = 241 s  ClockTime = 242 s

Courant Number mean: 9.44624e-05 max: 0.99373
Interface Courant Number mean: 2.38659e-07 max: 0.425164
deltaT = 1.57849e-07
Time = 9.18576e-06

PIMPLE: iteration 1
smoothSolver:  Solving for alpha.water, Initial residual = 1.86227e-07, Final residual = 1.51693e-11, No Iterations 1
Phase-1 volume fraction = 0.195993  Min(alpha.water) = -2.41676e-13  Max(alpha.water) = 1.01095
MULES: Correcting alpha.water
MULES: Correcting alpha.water
Phase-1 volume fraction = 0.195993  Min(alpha.water) = -1.11518e-11  Max(alpha.water) = 1.01095
GAMG:  Solving for p_rgh, Initial residual = 3.06471e-07, Final residual = 4.66894e-08, No Iterations 1
time step continuity errors : sum local = 9.53952e-10, global = -5.21018e-11, cumulative = 1.64205e-07
ExecutionTime = 248.29 s  ClockTime = 250 s

Courant Number mean: 9.50847e-05 max: 0.994266
Interface Courant Number mean: 2.40269e-07 max: 0.430352
deltaT = 1.58633e-07
Time = 9.34439e-06

PIMPLE: iteration 1
smoothSolver:  Solving for alpha.water, Initial residual = 1.8698e-07, Final residual = 1.51832e-11, No Iterations 1
Phase-1 volume fraction = 0.195993  Min(alpha.water) = -2.15555e-13  Max(alpha.water) = 1.01083
MULES: Correcting alpha.water
MULES: Correcting alpha.water
Phase-1 volume fraction = 0.195993  Min(alpha.water) = -1.08962e-11  Max(alpha.water) = 1.01083
GAMG:  Solving for p_rgh, Initial residual = 2.4089e-07, Final residual = 4.23802e-08, No Iterations 1
time step continuity errors : sum local = 8.88407e-10, global = -5.31007e-11, cumulative = 1.64152e-07
ExecutionTime = 255.6 s  ClockTime = 257 s

Courant Number mean: 9.55592e-05 max: 0.993336
Interface Courant Number mean: 2.41396e-07 max: 0.436035
deltaT = 1.59692e-07
Time = 9.50409e-06

PIMPLE: iteration 1
smoothSolver:  Solving for alpha.water, Initial residual = 1.88351e-07, Final residual = 1.52686e-11, No Iterations 1
Phase-1 volume fraction = 0.195993  Min(alpha.water) = -1.92296e-13  Max(alpha.water) = 1.0107
MULES: Correcting alpha.water
MULES: Correcting alpha.water
Phase-1 volume fraction = 0.195993  Min(alpha.water) = -8.2809e-12  Max(alpha.water) = 1.0107
GAMG:  Solving for p_rgh, Initial residual = 2.50173e-07, Final residual = 4.05706e-08, No Iterations 1
time step continuity errors : sum local = 8.85195e-10, global = -5.32761e-11, cumulative = 1.64098e-07
ExecutionTime = 263.05 s  ClockTime = 265 s

Courant Number mean: 9.62018e-05 max: 0.994176
Interface Courant Number mean: 2.43015e-07 max: 0.442855
deltaT = 1.60497e-07
Time = 9.66458e-06

PIMPLE: iteration 1
smoothSolver:  Solving for alpha.water, Initial residual = 1.89206e-07, Final residual = 1.5302e-11, No Iterations 1
Phase-1 volume fraction = 0.195994  Min(alpha.water) = -1.71411e-13  Max(alpha.water) = 1.01058
MULES: Correcting alpha.water
MULES: Correcting alpha.water
Phase-1 volume fraction = 0.195994  Min(alpha.water) = -6.80551e-12  Max(alpha.water) = 1.01058
GAMG:  Solving for p_rgh, Initial residual = 2.44315e-07, Final residual = 3.5637e-08, No Iterations 1
time step continuity errors : sum local = 7.98946e-10, global = -5.53536e-11, cumulative = 1.64043e-07
ExecutionTime = 270.32 s  ClockTime = 272 s

Courant Number mean: 9.66918e-05 max: 0.993474
Interface Courant Number mean: 2.4574e-07 max: 0.448608
deltaT = 1.61585e-07
Time = 9.82617e-06

PIMPLE: iteration 1
smoothSolver:  Solving for alpha.water, Initial residual = 1.90477e-07, Final residual = 1.54238e-11, No Iterations 1
Phase-1 volume fraction = 0.195994  Min(alpha.water) = -3.59855e-13  Max(alpha.water) = 1.01045
MULES: Correcting alpha.water
MULES: Correcting alpha.water
Phase-1 volume fraction = 0.195994  Min(alpha.water) = -5.98669e-12  Max(alpha.water) = 1.01045
GAMG:  Solving for p_rgh, Initial residual = 2.09315e-07, Final residual = 3.77973e-08, No Iterations 1
time step continuity errors : sum local = 8.61413e-10, global = -4.54858e-11, cumulative = 1.63998e-07
ExecutionTime = 277.58 s  ClockTime = 279 s

Courant Number mean: 9.73554e-05 max: 0.994589
Interface Courant Number mean: 2.53663e-07 max: 0.455358
deltaT = 1.62413e-07
Time = 9.98858e-06

PIMPLE: iteration 1
smoothSolver:  Solving for alpha.water, Initial residual = 1.91498e-07, Final residual = 1.54872e-11, No Iterations 1
Phase-1 volume fraction = 0.195994  Min(alpha.water) = -4.06948e-13  Max(alpha.water) = 1.01032
MULES: Correcting alpha.water
MULES: Correcting alpha.water
Phase-1 volume fraction = 0.195994  Min(alpha.water) = -5.66753e-12  Max(alpha.water) = 1.01032
GAMG:  Solving for p_rgh, Initial residual = 1.99654e-07, Final residual = 3.10977e-08, No Iterations 1
time step continuity errors : sum local = 7.27674e-10, global = -3.91561e-11, cumulative = 1.63958e-07
ExecutionTime = 284.79 s  ClockTime = 286 s

Courant Number mean: 9.78624e-05 max: 0.994136
Interface Courant Number mean: 2.99296e-07 max: 0.460846
deltaT = 1.6325e-07
Time = 1.01518e-05

PIMPLE: iteration 1
smoothSolver:  Solving for alpha.water, Initial residual = 1.92516e-07, Final residual = 1.55661e-11, No Iterations 1
Phase-1 volume fraction = 0.195994  Min(alpha.water) = -3.66145e-13  Max(alpha.water) = 1.01019
MULES: Correcting alpha.water
MULES: Correcting alpha.water
Phase-1 volume fraction = 0.195994  Min(alpha.water) = -5.34173e-12  Max(alpha.water) = 1.01019
GAMG:  Solving for p_rgh, Initial residual = 1.79224e-07, Final residual = 3.26032e-08, No Iterations 1
time step continuity errors : sum local = 7.71147e-10, global = -2.88034e-11, cumulative = 1.6393e-07
ExecutionTime = 292.29 s  ClockTime = 294 s

Courant Number mean: 9.83765e-05 max: 0.993783
Interface Courant Number mean: 3.00515e-07 max: 0.466426
deltaT = 1.64382e-07
Time = 1.03162e-05

PIMPLE: iteration 1
smoothSolver:  Solving for alpha.water, Initial residual = 1.93887e-07, Final residual = 1.57369e-11, No Iterations 1
Phase-1 volume fraction = 0.195994  Min(alpha.water) = -3.29361e-13  Max(alpha.water) = 1.01006
MULES: Correcting alpha.water
MULES: Correcting alpha.water
Phase-1 volume fraction = 0.195994  Min(alpha.water) = -4.76864e-12  Max(alpha.water) = 1.01006
GAMG:  Solving for p_rgh, Initial residual = 1.61811e-07, Final residual = 3.10103e-08, No Iterations 1
time step continuity errors : sum local = 7.43113e-10, global = 2.59675e-12, cumulative = 1.63932e-07
ExecutionTime = 299.38 s  ClockTime = 301 s

Courant Number mean: 9.90695e-05 max: 0.99528
Interface Courant Number mean: 3.84194e-07 max: 0.472449
deltaT = 1.65242e-07
Time = 1.04815e-05

PIMPLE: iteration 1
smoothSolver:  Solving for alpha.water, Initial residual = 1.94937e-07, Final residual = 1.58181e-11, No Iterations 1
Phase-1 volume fraction = 0.195994  Min(alpha.water) = -2.96094e-13  Max(alpha.water) = 1.00994
MULES: Correcting alpha.water
MULES: Correcting alpha.water
Phase-1 volume fraction = 0.195994  Min(alpha.water) = -4.12525e-12  Max(alpha.water) = 1.00994
GAMG:  Solving for p_rgh, Initial residual = 1.5444e-07, Final residual = 3.29929e-08, No Iterations 1
time step continuity errors : sum local = 7.84163e-10, global = 9.50759e-12, cumulative = 1.63942e-07
ExecutionTime = 306.67 s  ClockTime = 309 s

Courant Number mean: 9.95979e-05 max: 0.995116
Interface Courant Number mean: 4.27429e-07 max: 0.477476
deltaT = 1.66113e-07
Time = 1.06476e-05

PIMPLE: iteration 1
smoothSolver:  Solving for alpha.water, Initial residual = 1.96021e-07, Final residual = 1.59211e-11, No Iterations 1
Phase-1 volume fraction = 0.195995  Min(alpha.water) = -2.65903e-13  Max(alpha.water) = 1.00981
MULES: Correcting alpha.water
MULES: Correcting alpha.water
Phase-1 volume fraction = 0.195995  Min(alpha.water) = -3.52978e-12  Max(alpha.water) = 1.00981
GAMG:  Solving for p_rgh, Initial residual = 1.78826e-07, Final residual = 3.12789e-08, No Iterations 1
time step continuity errors : sum local = 7.09763e-10, global = 3.38072e-11, cumulative = 1.63976e-07
ExecutionTime = 313.85 s  ClockTime = 316 s

Courant Number mean: 0.000100133 max: 0.995029
Interface Courant Number mean: 4.2911e-07 max: 0.482123
deltaT = 1.66995e-07
Time = 1.08146e-05

PIMPLE: iteration 1
smoothSolver:  Solving for alpha.water, Initial residual = 1.97105e-07, Final residual = 1.60569e-11, No Iterations 1
Phase-1 volume fraction = 0.195995  Min(alpha.water) = -2.278e-13  Max(alpha.water) = 1.00968
MULES: Correcting alpha.water
MULES: Correcting alpha.water
Phase-1 volume fraction = 0.195995  Min(alpha.water) = -2.94367e-12  Max(alpha.water) = 1.00968
GAMG:  Solving for p_rgh, Initial residual = 1.73344e-07, Final residual = 2.97637e-08, No Iterations 1
time step continuity errors : sum local = 6.72575e-10, global = 4.51238e-11, cumulative = 1.64021e-07
ExecutionTime = 321.09 s  ClockTime = 324 s

Courant Number mean: 0.000100673 max: 0.995029
Interface Courant Number mean: 4.30884e-07 max: 0.486433
deltaT = 1.67888e-07
Time = 1.09825e-05

PIMPLE: iteration 1
smoothSolver:  Solving for alpha.water, Initial residual = 1.98142e-07, Final residual = 1.62235e-11, No Iterations 1
Phase-1 volume fraction = 0.195995  Min(alpha.water) = -1.95062e-13  Max(alpha.water) = 1.00956
MULES: Correcting alpha.water
MULES: Correcting alpha.water
Phase-1 volume fraction = 0.195995  Min(alpha.water) = -2.08966e-12  Max(alpha.water) = 1.00956
GAMG:  Solving for p_rgh, Initial residual = 1.61551e-07, Final residual = 3.64364e-08, No Iterations 1
time step continuity errors : sum local = 8.18552e-10, global = 4.57515e-11, cumulative = 1.64066e-07
ExecutionTime = 328.36 s  ClockTime = 331 s

Courant Number mean: 0.000101218 max: 0.995133
Interface Courant Number mean: 4.52134e-07 max: 0.490361
deltaT = 1.68793e-07
Time = 1.11512e-05

PIMPLE: iteration 1
smoothSolver:  Solving for alpha.water, Initial residual = 1.99374e-07, Final residual = 1.63995e-11, No Iterations 1
Phase-1 volume fraction = 0.195995  Min(alpha.water) = -1.49557e-13  Max(alpha.water) = 1.00951
MULES: Correcting alpha.water
MULES: Correcting alpha.water
Phase-1 volume fraction = 0.195995  Min(alpha.water) = -2.29375e-12  Max(alpha.water) = 1.00951
GAMG:  Solving for p_rgh, Initial residual = 1.83941e-07, Final residual = 3.43234e-08, No Iterations 1
time step continuity errors : sum local = 7.55404e-10, global = 4.9034e-11, cumulative = 1.64115e-07
ExecutionTime = 335.51 s  ClockTime = 338 s

Courant Number mean: 0.000101769 max: 0.995326
Interface Courant Number mean: 4.93601e-07 max: 0.493886
deltaT = 1.69708e-07
Time = 1.1321e-05

PIMPLE: iteration 1
smoothSolver:  Solving for alpha.water, Initial residual = 2.00356e-07, Final residual = 1.65758e-11, No Iterations 1
Phase-1 volume fraction = 0.195995  Min(alpha.water) = -8.75531e-14  Max(alpha.water) = 1.00949
MULES: Correcting alpha.water
MULES: Correcting alpha.water
Phase-1 volume fraction = 0.195995  Min(alpha.water) = -4.63815e-11  Max(alpha.water) = 1.00949
GAMG:  Solving for p_rgh, Initial residual = 1.82416e-07, Final residual = 4.14617e-08, No Iterations 1
time step continuity errors : sum local = 9.14665e-10, global = 3.08704e-11, cumulative = 1.64146e-07
ExecutionTime = 342.64 s  ClockTime = 346 s

Courant Number mean: 0.000102325 max: 0.995561
Interface Courant Number mean: 4.95663e-07 max: 0.497048
deltaT = 1.70326e-07
Time = 1.14913e-05

PIMPLE: iteration 1
smoothSolver:  Solving for alpha.water, Initial residual = 2.01185e-07, Final residual = 1.66648e-11, No Iterations 1
Phase-1 volume fraction = 0.195996  Min(alpha.water) = -1.17041e-14  Max(alpha.water) = 1.00947
MULES: Correcting alpha.water
MULES: Correcting alpha.water
Phase-1 volume fraction = 0.195996  Min(alpha.water) = -2.44645e-12  Max(alpha.water) = 1.00947
GAMG:  Solving for p_rgh, Initial residual = 1.79623e-07, Final residual = 3.52138e-08, No Iterations 1
time step continuity errors : sum local = 7.44471e-10, global = 2.36635e-11, cumulative = 1.6417e-07
ExecutionTime = 350.19 s  ClockTime = 353 s

Courant Number mean: 0.000102701 max: 0.994087
Interface Courant Number mean: 4.96964e-07 max: 0.498894
deltaT = 1.71261e-07
Time = 1.16625e-05

PIMPLE: iteration 1
smoothSolver:  Solving for alpha.water, Initial residual = 2.02259e-07, Final residual = 1.68823e-11, No Iterations 1
Phase-1 volume fraction = 0.195996  Min(alpha.water) = -1.04574e-14  Max(alpha.water) = 1.00946
MULES: Correcting alpha.water
MULES: Correcting alpha.water
Phase-1 volume fraction = 0.195996  Min(alpha.water) = -8.38595e-11  Max(alpha.water) = 1.00946
GAMG:  Solving for p_rgh, Initial residual = 1.77179e-07, Final residual = 3.35e-08, No Iterations 1
time step continuity errors : sum local = 7.12744e-10, global = 1.55947e-11, cumulative = 1.64186e-07
ExecutionTime = 357.37 s  ClockTime = 361 s

Courant Number mean: 0.000103268 max: 0.994519
Interface Courant Number mean: 4.99123e-07 max: 0.501973
deltaT = 1.72209e-07
Time = 1.18347e-05

PIMPLE: iteration 1
smoothSolver:  Solving for alpha.water, Initial residual = 2.03357e-07, Final residual = 1.70787e-11, No Iterations 1
Phase-1 volume fraction = 0.195996  Min(alpha.water) = -8.8386e-21  Max(alpha.water) = 1.00944
MULES: Correcting alpha.water
MULES: Correcting alpha.water
Phase-1 volume fraction = 0.195996  Min(alpha.water) = -8.80771e-10  Max(alpha.water) = 1.00944
GAMG:  Solving for p_rgh, Initial residual = 1.66629e-07, Final residual = 3.08279e-08, No Iterations 1
time step continuity errors : sum local = 6.52934e-10, global = 8.93322e-12, cumulative = 1.64195e-07
ExecutionTime = 364.67 s  ClockTime = 368 s

Courant Number mean: 0.000103843 max: 0.995068
Interface Courant Number mean: 5.01333e-07 max: 0.504787
deltaT = 1.7317e-07
Time = 1.20079e-05

PIMPLE: iteration 1
smoothSolver:  Solving for alpha.water, Initial residual = 2.04495e-07, Final residual = 1.72663e-11, No Iterations 1
Phase-1 volume fraction = 0.195996  Min(alpha.water) = -1.13514e-20  Max(alpha.water) = 1.00942
MULES: Correcting alpha.water
MULES: Correcting alpha.water
Phase-1 volume fraction = 0.195996  Min(alpha.water) = -5.96467e-11  Max(alpha.water) = 1.00942
GAMG:  Solving for p_rgh, Initial residual = 1.56543e-07, Final residual = 3.00038e-08, No Iterations 1
time step continuity errors : sum local = 6.37286e-10, global = 1.65953e-12, cumulative = 1.64196e-07
ExecutionTime = 371.95 s  ClockTime = 375 s

Courant Number mean: 0.000104425 max: 0.995747
Interface Courant Number mean: 5.03819e-07 max: 0.507207
deltaT = 1.73817e-07
Time = 1.21817e-05

PIMPLE: iteration 1
smoothSolver:  Solving for alpha.water, Initial residual = 2.05316e-07, Final residual = 1.73892e-11, No Iterations 1
Phase-1 volume fraction = 0.195996  Min(alpha.water) = -1.43698e-20  Max(alpha.water) = 1.00941
MULES: Correcting alpha.water
MULES: Correcting alpha.water
Phase-1 volume fraction = 0.195996  Min(alpha.water) = -1.54794e-09  Max(alpha.water) = 1.00941
GAMG:  Solving for p_rgh, Initial residual = 1.56799e-07, Final residual = 3.1498e-08, No Iterations 1
time step continuity errors : sum local = 6.71736e-10, global = -5.83355e-12, cumulative = 1.6419e-07
ExecutionTime = 379.19 s  ClockTime = 382 s

Courant Number mean: 0.000104818 max: 0.994703
Interface Courant Number mean: 5.05113e-07 max: 0.508585
deltaT = 1.74799e-07
Time = 1.23565e-05

PIMPLE: iteration 1
smoothSolver:  Solving for alpha.water, Initial residual = 2.06469e-07, Final residual = 1.75577e-11, No Iterations 1
Phase-1 volume fraction = 0.195997  Min(alpha.water) = -1.79587e-20  Max(alpha.water) = 1.00939
MULES: Correcting alpha.water
MULES: Correcting alpha.water
Phase-1 volume fraction = 0.195997  Min(alpha.water) = -9.4861e-10  Max(alpha.water) = 1.00939
GAMG:  Solving for p_rgh, Initial residual = 1.5e-07, Final residual = 2.83578e-08, No Iterations 1
time step continuity errors : sum local = 6.11113e-10, global = -1.31128e-11, cumulative = 1.64177e-07
ExecutionTime = 386.48 s  ClockTime = 390 s

Courant Number mean: 0.000105413 max: 0.995643
Interface Courant Number mean: 5.07569e-07 max: 0.510688
deltaT = 1.75461e-07
Time = 1.2532e-05

PIMPLE: iteration 1
smoothSolver:  Solving for alpha.water, Initial residual = 2.07265e-07, Final residual = 1.76524e-11, No Iterations 1
Phase-1 volume fraction = 0.195997  Min(alpha.water) = -2.21307e-20  Max(alpha.water) = 1.00937
MULES: Correcting alpha.water
MULES: Correcting alpha.water
Phase-1 volume fraction = 0.195997  Min(alpha.water) = -9.12772e-10  Max(alpha.water) = 1.00937
GAMG:  Solving for p_rgh, Initial residual = 1.45232e-07, Final residual = 2.77229e-08, No Iterations 1
time step continuity errors : sum local = 6.01737e-10, global = -1.93524e-11, cumulative = 1.64158e-07
ExecutionTime = 393.91 s  ClockTime = 397 s

Courant Number mean: 0.000105815 max: 0.994842
Interface Courant Number mean: 5.09141e-07 max: 0.511463
deltaT = 1.76466e-07
Time = 1.27085e-05

PIMPLE: iteration 1
smoothSolver:  Solving for alpha.water, Initial residual = 2.08457e-07, Final residual = 1.78531e-11, No Iterations 1
Phase-1 volume fraction = 0.195997  Min(alpha.water) = -2.69483e-20  Max(alpha.water) = 1.00936
MULES: Correcting alpha.water
MULES: Correcting alpha.water
Phase-1 volume fraction = 0.195997  Min(alpha.water) = -3.79085e-09  Max(alpha.water) = 1.00936
GAMG:  Solving for p_rgh, Initial residual = 1.47351e-07, Final residual = 2.7977e-08, No Iterations 1
time step continuity errors : sum local = 6.14353e-10, global = -2.43482e-11, cumulative = 1.64134e-07
ExecutionTime = 401.13 s  ClockTime = 404 s

Courant Number mean: 0.000106423 max: 0.996066
Interface Courant Number mean: 5.10574e-07 max: 0.512888
deltaT = 1.77143e-07
Time = 1.28856e-05

PIMPLE: iteration 1
smoothSolver:  Solving for alpha.water, Initial residual = 2.09189e-07, Final residual = 1.79376e-11, No Iterations 1
Phase-1 volume fraction = 0.195997  Min(alpha.water) = -3.25557e-20  Max(alpha.water) = 1.00934
MULES: Correcting alpha.water
MULES: Correcting alpha.water
Phase-1 volume fraction = 0.195997  Min(alpha.water) = -2.83827e-09  Max(alpha.water) = 1.00934
GAMG:  Solving for p_rgh, Initial residual = 1.39466e-07, Final residual = 2.50191e-08, No Iterations 1
time step continuity errors : sum local = 5.54263e-10, global = -2.60839e-11, cumulative = 1.64107e-07
ExecutionTime = 408.38 s  ClockTime = 412 s

Courant Number mean: 0.000106835 max: 0.995538
Interface Courant Number mean: 5.04509e-07 max: 0.513047
deltaT = 1.77827e-07
Time = 1.30634e-05

PIMPLE: iteration 1
smoothSolver:  Solving for alpha.water, Initial residual = 2.09965e-07, Final residual = 1.80739e-11, No Iterations 1
Phase-1 volume fraction = 0.195997  Min(alpha.water) = -3.90245e-20  Max(alpha.water) = 1.00932
MULES: Correcting alpha.water
MULES: Correcting alpha.water
Phase-1 volume fraction = 0.195997  Min(alpha.water) = -2.3775e-09  Max(alpha.water) = 1.00932
GAMG:  Solving for p_rgh, Initial residual = 1.30861e-07, Final residual = 2.44396e-08, No Iterations 1
time step continuity errors : sum local = 5.48032e-10, global = -1.9274e-11, cumulative = 1.64088e-07
ExecutionTime = 415.76 s  ClockTime = 419 s

Courant Number mean: 0.000107251 max: 0.995174
Interface Courant Number mean: 5.06122e-07 max: 0.512925
deltaT = 1.78518e-07
Time = 1.32419e-05

PIMPLE: iteration 1
smoothSolver:  Solving for alpha.water, Initial residual = 2.10786e-07, Final residual = 1.82547e-11, No Iterations 1
Phase-1 volume fraction = 0.195998  Min(alpha.water) = -4.64578e-20  Max(alpha.water) = 1.00931
MULES: Correcting alpha.water
MULES: Correcting alpha.water
Phase-1 volume fraction = 0.195998  Min(alpha.water) = -3.93937e-09  Max(alpha.water) = 1.00931
GAMG:  Solving for p_rgh, Initial residual = 1.35337e-07, Final residual = 2.30733e-08, No Iterations 1
time step continuity errors : sum local = 5.30249e-10, global = -1.42611e-11, cumulative = 1.64074e-07
ExecutionTime = 422.89 s  ClockTime = 426 s

Courant Number mean: 0.00010767 max: 0.994951
Interface Courant Number mean: 5.07624e-07 max: 0.512572
deltaT = 1.79566e-07
Time = 1.34215e-05

PIMPLE: iteration 1
smoothSolver:  Solving for alpha.water, Initial residual = 2.11952e-07, Final residual = 1.84777e-11, No Iterations 1
Phase-1 volume fraction = 0.195998  Min(alpha.water) = -5.49977e-20  Max(alpha.water) = 1.00929
MULES: Correcting alpha.water
MULES: Correcting alpha.water
Phase-1 volume fraction = 0.195998  Min(alpha.water) = -4.77153e-09  Max(alpha.water) = 1.00929
GAMG:  Solving for p_rgh, Initial residual = 1.27649e-07, Final residual = 2.03192e-08, No Iterations 1
time step continuity errors : sum local = 4.76407e-10, global = -1.01942e-11, cumulative = 1.64064e-07
[...]
deltaT = 1.96235e-07
Time = 0.000154019

PIMPLE: iteration 1
smoothSolver:  Solving for alpha.water, Initial residual = 3.08286e-07, Final residual = 4.21902e-11, No Iterations 1
Phase-1 volume fraction = 0.19616  Min(alpha.water) = -2.15763e-21  Max(alpha.water) = 1.20674
MULES: Correcting alpha.water
MULES: Correcting alpha.water
Phase-1 volume fraction = 0.19616  Min(alpha.water) = -4.04332e-11  Max(alpha.water) = 1.20668
GAMG:  Solving for p_rgh, Initial residual = 9.43771e-08, Final residual = 9.43771e-08, No Iterations 0
time step continuity errors : sum local = 2.24117e-09, global = 4.32957e-11, cumulative = 1.64489e-07
ExecutionTime = 5711.49 s  ClockTime = 5755 s

Courant Number mean: 0.000128972 max: 0.990321
Interface Courant Number mean: 1.90651e-06 max: 0.347717
deltaT = 1.96235e-07
Time = 0.000154215

PIMPLE: iteration 1
smoothSolver:  Solving for alpha.water, Initial residual = 3.09119e-07, Final residual = 4.21205e-11, No Iterations 1
Phase-1 volume fraction = 0.19616  Min(alpha.water) = -2.14819e-21  Max(alpha.water) = 1.1577
MULES: Correcting alpha.water
MULES: Correcting alpha.water
Phase-1 volume fraction = 0.19616  Min(alpha.water) = -4.65292e-11  Max(alpha.water) = 1.15754
GAMG:  Solving for p_rgh, Initial residual = 1.65978e-07, Final residual = 3.53985e-08, No Iterations 1
time step continuity errors : sum local = 8.40608e-10, global = 5.091e-11, cumulative = 1.6454e-07
ExecutionTime = 5718.84 s  ClockTime = 5762 s

Courant Number mean: 0.000128989 max: 0.990311
Interface Courant Number mean: 1.90606e-06 max: 0.347659
deltaT = 1.96235e-07
Time = 0.000154411

PIMPLE: iteration 1
smoothSolver:  Solving for alpha.water, Initial residual = 3.08337e-07, Final residual = 4.16292e-11, No Iterations 1
Phase-1 volume fraction = 0.19616  Min(alpha.water) = -2.13877e-21  Max(alpha.water) = 1.15178
MULES: Correcting alpha.water
MULES: Correcting alpha.water
Phase-1 volume fraction = 0.19616  Min(alpha.water) = -5.02178e-11  Max(alpha.water) = 1.15163
GAMG:  Solving for p_rgh, Initial residual = 1.28753e-07, Final residual = 3.23744e-08, No Iterations 1
time step continuity errors : sum local = 7.68555e-10, global = 5.63324e-11, cumulative = 1.64596e-07
ExecutionTime = 5725.98 s  ClockTime = 5769 s

Courant Number mean: 0.000129007 max: 0.9903
Interface Courant Number mean: 1.90582e-06 max: 0.347697
deltaT = 1.96235e-07
Time = 0.000154608

PIMPLE: iteration 1
smoothSolver:  Solving for alpha.water, Initial residual = 3.08337e-07, Final residual = 4.13418e-11, No Iterations 1
Phase-1 volume fraction = 0.19616  Min(alpha.water) = -2.12937e-21  Max(alpha.water) = 1.14311
MULES: Correcting alpha.water
MULES: Correcting alpha.water
Phase-1 volume fraction = 0.19616  Min(alpha.water) = -5.04155e-11  Max(alpha.water) = 1.1428
GAMG:  Solving for p_rgh, Initial residual = 1.13548e-07, Final residual = 2.69585e-08, No Iterations 1
time step continuity errors : sum local = 6.39696e-10, global = 5.90293e-11, cumulative = 1.64655e-07
ExecutionTime = 5733.26 s  ClockTime = 5777 s

Courant Number mean: 0.000129025 max: 0.990289
Interface Courant Number mean: 1.90571e-06 max: 0.347727
deltaT = 1.96235e-07
Time = 0.000154804

PIMPLE: iteration 1
smoothSolver:  Solving for alpha.water, Initial residual = 3.08363e-07, Final residual = 4.12094e-11, No Iterations 1
Phase-1 volume fraction = 0.196161  Min(alpha.water) = -2.11999e-21  Max(alpha.water) = 1.13704
MULES: Correcting alpha.water
MULES: Correcting alpha.water
Phase-1 volume fraction = 0.196161  Min(alpha.water) = -3.71874e-11  Max(alpha.water) = 1.13675
GAMG:  Solving for p_rgh, Initial residual = 9.97951e-08, Final residual = 9.97951e-08, No Iterations 0
time step continuity errors : sum local = 2.36682e-09, global = 6.17281e-11, cumulative = 1.64717e-07
ExecutionTime = 5740.51 s  ClockTime = 5784 s

Courant Number mean: 0.000129043 max: 0.990279
Interface Courant Number mean: 1.90558e-06 max: 0.347753
deltaT = 1.96235e-07
Time = 0.000155

PIMPLE: iteration 1
smoothSolver:  Solving for alpha.water, Initial residual = 3.09093e-07, Final residual = 4.11712e-11, No Iterations 1
Phase-1 volume fraction = 0.196161  Min(alpha.water) = -2.11064e-21  Max(alpha.water) = 1.16752
MULES: Correcting alpha.water
MULES: Correcting alpha.water
Phase-1 volume fraction = 0.196161  Min(alpha.water) = -8.09022e-11  Max(alpha.water) = 1.16737
GAMG:  Solving for p_rgh, Initial residual = 1.83947e-07, Final residual = 3.83362e-08, No Iterations 1
time step continuity errors : sum local = 9.0921e-10, global = 6.18933e-11, cumulative = 1.64779e-07
ExecutionTime = 5747.78 s  ClockTime = 5791 s

Courant Number mean: 0.000129061 max: 0.990267
Interface Courant Number mean: 1.90582e-06 max: 0.347771
deltaT = 1.98413e-07
Time = 0.000155198

PIMPLE: iteration 1
smoothSolver:  Solving for alpha.water, Initial residual = 3.11896e-07, Final residual = 4.16624e-11, No Iterations 1
Phase-1 volume fraction = 0.196161  Min(alpha.water) = -2.1012e-21  Max(alpha.water) = 1.16132
MULES: Correcting alpha.water
MULES: Correcting alpha.water
Phase-1 volume fraction = 0.196161  Min(alpha.water) = -4.54086e-11  Max(alpha.water) = 1.161
GAMG:  Solving for p_rgh, Initial residual = 1.55028e-07, Final residual = 3.67509e-08, No Iterations 1
time step continuity errors : sum local = 8.90697e-10, global = 5.99557e-11, cumulative = 1.64838e-07
ExecutionTime = 5755.03 s  ClockTime = 5799 s

Courant Number mean: 0.000130512 max: 1.00124
Interface Courant Number mean: 1.92675e-06 max: 0.351674
deltaT = 1.98413e-07
Time = 0.000155397

PIMPLE: iteration 1
smoothSolver:  Solving for alpha.water, Initial residual = 3.11861e-07, Final residual = 4.14226e-11, No Iterations 1
Phase-1 volume fraction = 0.196161  Min(alpha.water) = -2.09178e-21  Max(alpha.water) = 1.1566
MULES: Correcting alpha.water
MULES: Correcting alpha.water
Phase-1 volume fraction = 0.196161  Min(alpha.water) = -3.91889e-11  Max(alpha.water) = 1.15581
GAMG:  Solving for p_rgh, Initial residual = 1.43396e-07, Final residual = 3.47376e-08, No Iterations 1
time step continuity errors : sum local = 8.41555e-10, global = 5.47705e-11, cumulative = 1.64893e-07
ExecutionTime = 5762.48 s  ClockTime = 5806 s

Courant Number mean: 0.000130531 max: 1.00123
Interface Courant Number mean: 1.9266e-06 max: 0.351712
deltaT = 1.98413e-07
Time = 0.000155595

PIMPLE: iteration 1
smoothSolver:  Solving for alpha.water, Initial residual = 3.1192e-07, Final residual = 4.13232e-11, No Iterations 1
Phase-1 volume fraction = 0.196162  Min(alpha.water) = -2.08238e-21  Max(alpha.water) = 1.15211
MULES: Correcting alpha.water
MULES: Correcting alpha.water
Phase-1 volume fraction = 0.196162  Min(alpha.water) = -4.47138e-11  Max(alpha.water) = 1.15124
GAMG:  Solving for p_rgh, Initial residual = 1.2581e-07, Final residual = 3.26483e-08, No Iterations 1
time step continuity errors : sum local = 7.90588e-10, global = 4.78853e-11, cumulative = 1.64941e-07
ExecutionTime = 5769.65 s  ClockTime = 5813 s

Courant Number mean: 0.000130551 max: 1.00121
Interface Courant Number mean: 1.92572e-06 max: 0.351748
deltaT = 1.98413e-07
Time = 0.000155794

PIMPLE: iteration 1
smoothSolver:  Solving for alpha.water, Initial residual = 3.11881e-07, Final residual = 4.12223e-11, No Iterations 1
Phase-1 volume fraction = 0.196162  Min(alpha.water) = -2.07301e-21  Max(alpha.water) = 1.1464
MULES: Correcting alpha.water
MULES: Correcting alpha.water
Phase-1 volume fraction = 0.196162  Min(alpha.water) = -3.95485e-11  Max(alpha.water) = 1.14563
GAMG:  Solving for p_rgh, Initial residual = 1.14063e-07, Final residual = 3.27457e-08, No Iterations 1
time step continuity errors : sum local = 7.92589e-10, global = 4.01492e-11, cumulative = 1.64981e-07
ExecutionTime = 5777.07 s  ClockTime = 5821 s

Courant Number mean: 0.000130571 max: 1.0012
Interface Courant Number mean: 1.92558e-06 max: 0.351777
deltaT = 1.98413e-07
Time = 0.000155992

PIMPLE: iteration 1
smoothSolver:  Solving for alpha.water, Initial residual = 3.11938e-07, Final residual = 4.10739e-11, No Iterations 1
Phase-1 volume fraction = 0.196162  Min(alpha.water) = -2.06365e-21  Max(alpha.water) = 1.14132
MULES: Correcting alpha.water
MULES: Correcting alpha.water
Phase-1 volume fraction = 0.196162  Min(alpha.water) = -4.33307e-11  Max(alpha.water) = 1.14051
GAMG:  Solving for p_rgh, Initial residual = 1.07155e-07, Final residual = 3.25198e-08, No Iterations 1
time step continuity errors : sum local = 7.86749e-10, global = 3.27277e-11, cumulative = 1.65014e-07
ExecutionTime = 5784.35 s  ClockTime = 5828 s

Courant Number mean: 0.000130592 max: 1.00119
Interface Courant Number mean: 1.92537e-06 max: 0.3518
deltaT = 1.98413e-07
Time = 0.00015619

PIMPLE: iteration 1
smoothSolver:  Solving for alpha.water, Initial residual = 3.11895e-07, Final residual = 4.0851e-11, No Iterations 1
Phase-1 volume fraction = 0.196162  Min(alpha.water) = -2.05432e-21  Max(alpha.water) = 1.13557
MULES: Correcting alpha.water
MULES: Correcting alpha.water
Phase-1 volume fraction = 0.196162  Min(alpha.water) = -3.92946e-11  Max(alpha.water) = 1.13479
GAMG:  Solving for p_rgh, Initial residual = 1.0434e-07, Final residual = 3.22391e-08, No Iterations 1
time step continuity errors : sum local = 7.79608e-10, global = 2.66502e-11, cumulative = 1.65041e-07
ExecutionTime = 5791.65 s  ClockTime = 5836 s

Courant Number mean: 0.000130613 max: 1.00117
Interface Courant Number mean: 1.92521e-06 max: 0.351815
deltaT = 1.98413e-07
Time = 0.000156389

PIMPLE: iteration 1
smoothSolver:  Solving for alpha.water, Initial residual = 3.11933e-07, Final residual = 4.06207e-11, No Iterations 1
Phase-1 volume fraction = 0.196163  Min(alpha.water) = -2.045e-21  Max(alpha.water) = 1.13027
MULES: Correcting alpha.water
MULES: Correcting alpha.water
Phase-1 volume fraction = 0.196163  Min(alpha.water) = -4.52373e-11  Max(alpha.water) = 1.1295
GAMG:  Solving for p_rgh, Initial residual = 9.84349e-08, Final residual = 9.84349e-08, No Iterations 0
time step continuity errors : sum local = 2.37936e-09, global = 2.05732e-11, cumulative = 1.65061e-07
ExecutionTime = 5798.79 s  ClockTime = 5843 s

Courant Number mean: 0.000130635 max: 1.00116
Interface Courant Number mean: 1.92504e-06 max: 0.351822
deltaT = 1.98413e-07
Time = 0.000156587

PIMPLE: iteration 1
smoothSolver:  Solving for alpha.water, Initial residual = 3.12384e-07, Final residual = 4.06313e-11, No Iterations 1
Phase-1 volume fraction = 0.196163  Min(alpha.water) = -2.03571e-21  Max(alpha.water) = 1.09879
MULES: Correcting alpha.water
MULES: Correcting alpha.water
Phase-1 volume fraction = 0.196163  Min(alpha.water) = -5.6427e-11  Max(alpha.water) = 1.0978
GAMG:  Solving for p_rgh, Initial residual = 1.7437e-07, Final residual = 4.55273e-08, No Iterations 1
time step continuity errors : sum local = 1.10048e-09, global = 1.77344e-11, cumulative = 1.65079e-07
ExecutionTime = 5806.02 s  ClockTime = 5850 s

Courant Number mean: 0.000130656 max: 1.00115
Interface Courant Number mean: 1.92449e-06 max: 0.351823
deltaT = 1.98413e-07
Time = 0.000156786

PIMPLE: iteration 1
smoothSolver:  Solving for alpha.water, Initial residual = 3.1194e-07, Final residual = 4.01806e-11, No Iterations 1
Phase-1 volume fraction = 0.196163  Min(alpha.water) = -2.02643e-21  Max(alpha.water) = 1.09375
MULES: Correcting alpha.water
MULES: Correcting alpha.water
Phase-1 volume fraction = 0.196163  Min(alpha.water) = -5.41065e-11  Max(alpha.water) = 1.09287
GAMG:  Solving for p_rgh, Initial residual = 1.19522e-07, Final residual = 3.93666e-08, No Iterations 1
time step continuity errors : sum local = 9.51343e-10, global = 1.84863e-11, cumulative = 1.65097e-07
ExecutionTime = 5813.35 s  ClockTime = 5858 s

Courant Number mean: 0.000130679 max: 1.00113
Interface Courant Number mean: 1.92426e-06 max: 0.351814
deltaT = 1.98413e-07
Time = 0.000156984

PIMPLE: iteration 1
smoothSolver:  Solving for alpha.water, Initial residual = 3.11894e-07, Final residual = 3.98574e-11, No Iterations 1
Phase-1 volume fraction = 0.196163  Min(alpha.water) = -2.01717e-21  Max(alpha.water) = 1.08934
MULES: Correcting alpha.water
MULES: Correcting alpha.water
Phase-1 volume fraction = 0.196163  Min(alpha.water) = -5.18761e-11  Max(alpha.water) = 1.08866
GAMG:  Solving for p_rgh, Initial residual = 1.05572e-07, Final residual = 3.13191e-08, No Iterations 1
time step continuity errors : sum local = 7.5666e-10, global = 2.2344e-11, cumulative = 1.6512e-07
ExecutionTime = 5820.45 s  ClockTime = 5865 s

Courant Number mean: 0.000130702 max: 1.00112
Interface Courant Number mean: 1.92415e-06 max: 0.351798
deltaT = 1.98413e-07
Time = 0.000157183

PIMPLE: iteration 1
smoothSolver:  Solving for alpha.water, Initial residual = 3.11892e-07, Final residual = 3.97494e-11, No Iterations 1
Phase-1 volume fraction = 0.196163  Min(alpha.water) = -2.00794e-21  Max(alpha.water) = 1.08512
MULES: Correcting alpha.water
MULES: Correcting alpha.water
Phase-1 volume fraction = 0.196163  Min(alpha.water) = -4.54224e-11  Max(alpha.water) = 1.08449
GAMG:  Solving for p_rgh, Initial residual = 8.96479e-08, Final residual = 8.96479e-08, No Iterations 0
time step continuity errors : sum local = 2.16529e-09, global = 2.62041e-11, cumulative = 1.65146e-07
ExecutionTime = 5827.58 s  ClockTime = 5873 s

Courant Number mean: 0.000130725 max: 1.00111
Interface Courant Number mean: 1.92402e-06 max: 0.351771
deltaT = 1.98413e-07
Time = 0.000157381

PIMPLE: iteration 1
smoothSolver:  Solving for alpha.water, Initial residual = 3.12371e-07, Final residual = 3.97962e-11, No Iterations 1
Phase-1 volume fraction = 0.196164  Min(alpha.water) = -1.99872e-21  Max(alpha.water) = 1.11392
MULES: Correcting alpha.water
MULES: Correcting alpha.water
Phase-1 volume fraction = 0.196164  Min(alpha.water) = -5.33889e-11  Max(alpha.water) = 1.11391
GAMG:  Solving for p_rgh, Initial residual = 1.62533e-07, Final residual = 3.36175e-08, No Iterations 1
time step continuity errors : sum local = 8.11972e-10, global = 3.17556e-11, cumulative = 1.65178e-07
ExecutionTime = 5835.05 s  ClockTime = 5880 s

Courant Number mean: 0.000130747 max: 1.00109
Interface Courant Number mean: 1.92405e-06 max: 0.351746
deltaT = 1.98413e-07
Time = 0.000157579

PIMPLE: iteration 1
smoothSolver:  Solving for alpha.water, Initial residual = 3.11923e-07, Final residual = 3.93018e-11, No Iterations 1
Phase-1 volume fraction = 0.196164  Min(alpha.water) = -1.98952e-21  Max(alpha.water) = 1.1095
MULES: Correcting alpha.water
MULES: Correcting alpha.water
Phase-1 volume fraction = 0.196164  Min(alpha.water) = -5.36531e-11  Max(alpha.water) = 1.10931
GAMG:  Solving for p_rgh, Initial residual = 1.13061e-07, Final residual = 2.90764e-08, No Iterations 1
time step continuity errors : sum local = 7.02159e-10, global = 3.75901e-11, cumulative = 1.65215e-07
ExecutionTime = 5842.32 s  ClockTime = 5887 s

Courant Number mean: 0.00013077 max: 1.00108
Interface Courant Number mean: 1.92318e-06 max: 0.351706
deltaT = 1.98413e-07
Time = 0.000157778

PIMPLE: iteration 1
smoothSolver:  Solving for alpha.water, Initial residual = 3.11847e-07, Final residual = 3.90999e-11, No Iterations 1
Phase-1 volume fraction = 0.196164  Min(alpha.water) = -1.98033e-21  Max(alpha.water) = 1.10485
MULES: Correcting alpha.water
MULES: Correcting alpha.water
Phase-1 volume fraction = 0.196164  Min(alpha.water) = -5.54389e-11  Max(alpha.water) = 1.10426
GAMG:  Solving for p_rgh, Initial residual = 1.06725e-07, Final residual = 2.51306e-08, No Iterations 1
time step continuity errors : sum local = 6.06741e-10, global = 4.20637e-11, cumulative = 1.65257e-07
ExecutionTime = 5849.47 s  ClockTime = 5895 s

Courant Number mean: 0.000130792 max: 1.00106
Interface Courant Number mean: 1.92283e-06 max: 0.351661
deltaT = 1.98413e-07
Time = 0.000157976

PIMPLE: iteration 1
smoothSolver:  Solving for alpha.water, Initial residual = 3.11864e-07, Final residual = 3.90379e-11, No Iterations 1
Phase-1 volume fraction = 0.196164  Min(alpha.water) = -1.97117e-21  Max(alpha.water) = 1.1006
MULES: Correcting alpha.water
MULES: Correcting alpha.water
Phase-1 volume fraction = 0.196164  Min(alpha.water) = -4.43373e-11  Max(alpha.water) = 1.09999
GAMG:  Solving for p_rgh, Initial residual = 9.41862e-08, Final residual = 9.41862e-08, No Iterations 0
time step continuity errors : sum local = 2.27351e-09, global = 4.65409e-11, cumulative = 1.65304e-07
ExecutionTime = 5856.59 s  ClockTime = 5902 s

Courant Number mean: 0.000130814 max: 1.00105
Interface Courant Number mean: 1.92269e-06 max: 0.351605
deltaT = 1.98413e-07
Time = 0.000158175

PIMPLE: iteration 1
smoothSolver:  Solving for alpha.water, Initial residual = 3.1255e-07, Final residual = 3.90855e-11, No Iterations 1
Phase-1 volume fraction = 0.196165  Min(alpha.water) = -1.96203e-21  Max(alpha.water) = 1.0615
MULES: Correcting alpha.water
MULES: Correcting alpha.water
Phase-1 volume fraction = 0.196165  Min(alpha.water) = -5.08171e-11  Max(alpha.water) = 1.06146
GAMG:  Solving for p_rgh, Initial residual = 1.69547e-07, Final residual = 3.53751e-08, No Iterations 1
time step continuity errors : sum local = 8.539e-10, global = 4.64567e-11, cumulative = 1.6535e-07
ExecutionTime = 5863.96 s  ClockTime = 5909 s

Courant Number mean: 0.000130836 max: 1.00104
Interface Courant Number mean: 1.92242e-06 max: 0.351555
deltaT = 1.98413e-07
Time = 0.000158373

PIMPLE: iteration 1
smoothSolver:  Solving for alpha.water, Initial residual = 3.11826e-07, Final residual = 3.85905e-11, No Iterations 1
Phase-1 volume fraction = 0.196165  Min(alpha.water) = -1.95291e-21  Max(alpha.water) = 1.06041
MULES: Correcting alpha.water
MULES: Correcting alpha.water
Phase-1 volume fraction = 0.196165  Min(alpha.water) = -5.44737e-11  Max(alpha.water) = 1.06036
GAMG:  Solving for p_rgh, Initial residual = 1.25528e-07, Final residual = 3.38301e-08, No Iterations 1
time step continuity errors : sum local = 8.16483e-10, global = 4.05914e-11, cumulative = 1.65391e-07
ExecutionTime = 5871.3 s  ClockTime = 5917 s

Courant Number mean: 0.000130857 max: 1.00102
Interface Courant Number mean: 1.92221e-06 max: 0.351482
deltaT = 1.98413e-07
Time = 0.000158571

PIMPLE: iteration 1
smoothSolver:  Solving for alpha.water, Initial residual = 3.11765e-07, Final residual = 3.83857e-11, No Iterations 1
Phase-1 volume fraction = 0.196165  Min(alpha.water) = -1.9438e-21  Max(alpha.water) = 1.0582
MULES: Correcting alpha.water
MULES: Correcting alpha.water
Phase-1 volume fraction = 0.196165  Min(alpha.water) = -3.98317e-11  Max(alpha.water) = 1.05815
GAMG:  Solving for p_rgh, Initial residual = 1.17761e-07, Final residual = 3.04009e-08, No Iterations 1
time step continuity errors : sum local = 7.33609e-10, global = 2.84648e-11, cumulative = 1.65419e-07
ExecutionTime = 5878.35 s  ClockTime = 5924 s

Courant Number mean: 0.000130878 max: 1.00101
Interface Courant Number mean: 1.92208e-06 max: 0.351405
deltaT = 1.98413e-07
Time = 0.00015877

PIMPLE: iteration 1
smoothSolver:  Solving for alpha.water, Initial residual = 3.11737e-07, Final residual = 3.83167e-11, No Iterations 1
Phase-1 volume fraction = 0.196165  Min(alpha.water) = -1.93471e-21  Max(alpha.water) = 1.05688
MULES: Correcting alpha.water
MULES: Correcting alpha.water
Phase-1 volume fraction = 0.196165  Min(alpha.water) = -4.1855e-11  Max(alpha.water) = 1.05683
GAMG:  Solving for p_rgh, Initial residual = 1.00364e-07, Final residual = 2.67167e-08, No Iterations 1
time step continuity errors : sum local = 6.44614e-10, global = 1.08267e-11, cumulative = 1.6543e-07
ExecutionTime = 5885.52 s  ClockTime = 5931 s

Courant Number mean: 0.000130899 max: 1.00099
Interface Courant Number mean: 1.9219e-06 max: 0.35132
deltaT = 1.98413e-07
Time = 0.000158968

PIMPLE: iteration 1
smoothSolver:  Solving for alpha.water, Initial residual = 3.11693e-07, Final residual = 3.82224e-11, No Iterations 1
Phase-1 volume fraction = 0.196165  Min(alpha.water) = -1.92564e-21  Max(alpha.water) = 1.0551
MULES: Correcting alpha.water
MULES: Correcting alpha.water
